MODEL 1
REMARK VINA RESULT:    -8.243      0.000      0.000
REMARK INTER + INTRA:          -9.677
REMARK INTER:                 -10.171
REMARK INTRA:                   0.494
REMARK UNBOUND:                 0.494
REMARK  4 active torsions:
REMARK  status: ('A' for Active; 'I' for Inactive)
REMARK    1  A    between atoms: C1_1  and  N4_9 
REMARK    2  A    between atoms: C9_23  and  N2_4 
REMARK       I    between atoms: N4_9  and  C5_10 
REMARK    3  A    between atoms: C5_10  and  C7_13 
REMARK    4  A    between atoms: C4_15  and  N3_20 
ROOT
ATOM      1  C1  INB d   0      -2.598  -4.837  23.122  0.00  0.00     0.131 A 
ATOM      2  C2  INB d   0      -2.351  -5.177  21.733  0.00  0.00     0.296 A 
ATOM      3  N1  INB d   0      -1.546  -3.134  22.187  0.00  0.00    -0.265 N 
ATOM      4  N2  INB d   0      -1.705  -4.114  21.204  0.00  0.00    -0.213 N 
ATOM      5  C3  INB d   0      -2.100  -3.610  23.352  0.00  0.00     0.075 A 
ATOM      6  O1  INB d   0      -2.663  -6.216  21.151  0.00  0.00    -0.264 OA
ATOM      7  C12 INB d   0      -1.761  -1.772  21.703  0.00  0.00     0.152 C 
ATOM      8  C13 INB d   0      -2.172  -2.731  24.591  0.00  0.00     0.053 C 
ENDROOT
BRANCH   1   9
ATOM      9  N4  INB d   0      -3.305  -5.708  23.960  0.00  0.00    -0.317 N 
ATOM     10  H1  INB d   0      -2.790  -6.520  24.265  0.00  0.00     0.169 HD
ATOM     11  C5  INB d   0      -4.532  -5.535  24.484  0.00  0.00     0.258 C 
ATOM     12  O4  INB d   0      -5.291  -4.606  24.212  0.00  0.00    -0.267 OA
BRANCH  11  13
ATOM     13  C7  INB d   0      -4.963  -6.600  25.453  0.00  0.00     0.058 A 
ATOM     14  C6  INB d   0      -5.823  -6.270  26.522  0.00  0.00     0.029 A 
ATOM     15  C4  INB d   0      -6.225  -7.244  27.464  0.00  0.00     0.133 A 
ATOM     16  C8  INB d   0      -5.760  -8.575  27.324  0.00  0.00     0.057 A 
ATOM     17  C11 INB d   0      -4.892  -8.904  26.267  0.00  0.00     0.009 A 
ATOM     18 Br   INB d   0      -6.303  -9.968  28.511  0.00  0.00    -0.047 Br
ATOM     19  C10 INB d   0      -4.487  -7.927  25.340  0.00  0.00     0.005 A 
BRANCH  15  20
ATOM     20  N3  INB d   0      -7.121  -6.845  28.561  0.00  0.00    -0.113 N 
ATOM     21  O3  INB d   0      -8.331  -6.868  28.362  0.00  0.00    -0.532 OA
ATOM     22  O2  INB d   0      -6.605  -6.546  29.631  0.00  0.00    -0.532 OA
ENDBRANCH  15  20
ENDBRANCH  11  13
ENDBRANCH   1   9
BRANCH   4  23
ATOM     23  C9  INB d   0      -1.001  -4.092  19.964  0.00  0.00     0.084 A 
ATOM     24  C14 INB d   0      -0.226  -2.963  19.608  0.00  0.00     0.019 A 
ATOM     25  C16 INB d   0       0.461  -2.929  18.379  0.00  0.00     0.002 A 
ATOM     26  C18 INB d   0       0.374  -4.020  17.494  0.00  0.00     0.000 A 
ATOM     27  C17 INB d   0      -0.400  -5.145  17.836  0.00  0.00     0.002 A 
ATOM     28  C15 INB d   0      -1.087  -5.181  19.066  0.00  0.00     0.019 A 
ENDBRANCH   4  23
TORSDOF 4
ENDMDL
MODEL 2
REMARK VINA RESULT:    -8.207      3.805      8.494
REMARK INTER + INTRA:          -9.632
REMARK INTER:                  -8.760
REMARK INTRA:                  -0.872
REMARK UNBOUND:                 0.494
REMARK  4 active torsions:
REMARK  status: ('A' for Active; 'I' for Inactive)
REMARK    1  A    between atoms: C1_1  and  N4_9 
REMARK    2  A    between atoms: C9_23  and  N2_4 
REMARK       I    between atoms: N4_9  and  C5_10 
REMARK    3  A    between atoms: C5_10  and  C7_13 
REMARK    4  A    between atoms: C4_15  and  N3_20 
ROOT
ATOM      1  C1  INB d   0      -4.426  -6.630  25.596  0.00  0.00     0.131 A 
ATOM      2  C2  INB d   0      -3.536  -7.593  26.218  0.00  0.00     0.296 A 
ATOM      3  N1  INB d   0      -5.670  -8.094  26.685  0.00  0.00    -0.265 N 
ATOM      4  N2  INB d   0      -4.336  -8.467  26.867  0.00  0.00    -0.213 N 
ATOM      5  C3  INB d   0      -5.690  -6.967  25.898  0.00  0.00     0.075 A 
ATOM      6  O1  INB d   0      -2.305  -7.613  26.170  0.00  0.00    -0.264 OA
ATOM      7  C12 INB d   0      -6.493  -8.241  27.884  0.00  0.00     0.152 C 
ATOM      8  C13 INB d   0      -7.001  -6.255  25.598  0.00  0.00     0.053 C 
ENDROOT
BRANCH   1   9
ATOM      9  N4  INB d   0      -3.916  -5.541  24.878  0.00  0.00    -0.317 N 
ATOM     10  H1  INB d   0      -3.747  -4.710  25.425  0.00  0.00     0.169 HD
ATOM     11  C5  INB d   0      -3.530  -5.508  23.590  0.00  0.00     0.258 C 
ATOM     12  O4  INB d   0      -3.671  -6.430  22.788  0.00  0.00    -0.267 OA
BRANCH  11  13
ATOM     13  C7  INB d   0      -2.905  -4.214  23.149  0.00  0.00     0.058 A 
ATOM     14  C6  INB d   0      -2.716  -3.173  24.083  0.00  0.00     0.029 A 
ATOM     15  C4  INB d   0      -2.154  -1.935  23.693  0.00  0.00     0.133 A 
ATOM     16  C8  INB d   0      -1.768  -1.745  22.343  0.00  0.00     0.057 A 
ATOM     17  C11 INB d   0      -1.967  -2.778  21.408  0.00  0.00     0.009 A 
ATOM     18 Br   INB d   0      -0.943  -0.132  21.744  0.00  0.00    -0.047 Br
ATOM     19  C10 INB d   0      -2.538  -4.003  21.801  0.00  0.00     0.005 A 
BRANCH  15  20
ATOM     20  N3  INB d   0      -1.982  -0.882  24.706  0.00  0.00    -0.113 N 
ATOM     21  O3  INB d   0      -2.941  -0.165  24.968  0.00  0.00    -0.532 OA
ATOM     22  O2  INB d   0      -0.893  -0.804  25.262  0.00  0.00    -0.532 OA
ENDBRANCH  15  20
ENDBRANCH  11  13
ENDBRANCH   1   9
BRANCH   4  23
ATOM     23  C9  INB d   0      -3.949  -9.742  27.376  0.00  0.00     0.084 A 
ATOM     24  C14 INB d   0      -3.367  -9.846  28.661  0.00  0.00     0.019 A 
ATOM     25  C16 INB d   0      -2.970 -11.100  29.164  0.00  0.00     0.002 A 
ATOM     26  C18 INB d   0      -3.147 -12.259  28.385  0.00  0.00     0.000 A 
ATOM     27  C17 INB d   0      -3.720 -12.165  27.102  0.00  0.00     0.002 A 
ATOM     28  C15 INB d   0      -4.118 -10.910  26.598  0.00  0.00     0.019 A 
ENDBRANCH   4  23
TORSDOF 4
ENDMDL
MODEL 3
REMARK VINA RESULT:    -8.045      3.669      8.788
REMARK INTER + INTRA:          -9.432
REMARK INTER:                  -8.594
REMARK INTRA:                  -0.838
REMARK UNBOUND:                 0.494
REMARK  4 active torsions:
REMARK  status: ('A' for Active; 'I' for Inactive)
REMARK    1  A    between atoms: C1_1  and  N4_9 
REMARK    2  A    between atoms: C9_23  and  N2_4 
REMARK       I    between atoms: N4_9  and  C5_10 
REMARK    3  A    between atoms: C5_10  and  C7_13 
REMARK    4  A    between atoms: C4_15  and  N3_20 
ROOT
ATOM      1  C1  INB d   0      -4.240  -6.919  25.251  0.00  0.00     0.131 A 
ATOM      2  C2  INB d   0      -3.498  -7.934  25.978  0.00  0.00     0.296 A 
ATOM      3  N1  INB d   0      -5.615  -7.843  26.713  0.00  0.00    -0.265 N 
ATOM      4  N2  INB d   0      -4.375  -8.472  26.854  0.00  0.00    -0.213 N 
ATOM      5  C3  INB d   0      -5.499  -6.899  25.719  0.00  0.00     0.075 A 
ATOM      6  O1  INB d   0      -2.315  -8.243  25.833  0.00  0.00    -0.264 OA
ATOM      7  C12 INB d   0      -6.292  -7.583  27.981  0.00  0.00     0.152 C 
ATOM      8  C13 INB d   0      -6.659  -5.972  25.392  0.00  0.00     0.053 C 
ENDROOT
BRANCH   1   9
ATOM      9  N4  INB d   0      -3.609  -6.121  24.289  0.00  0.00    -0.317 N 
ATOM     10  H1  INB d   0      -2.855  -5.547  24.637  0.00  0.00     0.169 HD
ATOM     11  C5  INB d   0      -3.815  -6.110  22.960  0.00  0.00     0.258 C 
ATOM     12  O4  INB d   0      -4.695  -6.743  22.378  0.00  0.00    -0.267 OA
BRANCH  11  13
ATOM     13  C7  INB d   0      -2.884  -5.224  22.181  0.00  0.00     0.058 A 
ATOM     14  C6  INB d   0      -2.649  -3.902  22.614  0.00  0.00     0.029 A 
ATOM     15  C4  INB d   0      -1.798  -3.036  21.890  0.00  0.00     0.133 A 
ATOM     16  C8  INB d   0      -1.167  -3.511  20.713  0.00  0.00     0.057 A 
ATOM     17  C11 INB d   0      -1.410  -4.825  20.272  0.00  0.00     0.009 A 
ATOM     18 Br   INB d   0       0.046  -2.433  19.710  0.00  0.00    -0.047 Br
ATOM     19  C10 INB d   0      -2.267  -5.678  20.993  0.00  0.00     0.005 A 
BRANCH  15  20
ATOM     20  N3  INB d   0      -1.590  -1.666  22.384  0.00  0.00    -0.113 N 
ATOM     21  O3  INB d   0      -2.370  -0.792  22.022  0.00  0.00    -0.532 OA
ATOM     22  O2  INB d   0      -0.663  -1.481  23.164  0.00  0.00    -0.532 OA
ENDBRANCH  15  20
ENDBRANCH  11  13
ENDBRANCH   1   9
BRANCH   4  23
ATOM     23  C9  INB d   0      -4.201  -9.691  27.575  0.00  0.00     0.084 A 
ATOM     24  C14 INB d   0      -4.810 -10.881  27.115  0.00  0.00     0.019 A 
ATOM     25  C16 INB d   0      -4.653 -12.084  27.830  0.00  0.00     0.002 A 
ATOM     26  C18 INB d   0      -3.891 -12.105  29.013  0.00  0.00     0.000 A 
ATOM     27  C17 INB d   0      -3.286 -10.924  29.482  0.00  0.00     0.002 A 
ATOM     28  C15 INB d   0      -3.442  -9.720  28.767  0.00  0.00     0.019 A 
ENDBRANCH   4  23
TORSDOF 4
ENDMDL
MODEL 4
REMARK VINA RESULT:    -7.950      3.610      9.118
REMARK INTER + INTRA:          -9.315
REMARK INTER:                  -8.809
REMARK INTRA:                  -0.506
REMARK UNBOUND:                 0.494
REMARK  4 active torsions:
REMARK  status: ('A' for Active; 'I' for Inactive)
REMARK    1  A    between atoms: C1_1  and  N4_9 
REMARK    2  A    between atoms: C9_23  and  N2_4 
REMARK       I    between atoms: N4_9  and  C5_10 
REMARK    3  A    between atoms: C5_10  and  C7_13 
REMARK    4  A    between atoms: C4_15  and  N3_20 
ROOT
ATOM      1  C1  INB d   0      -4.180  -6.777  25.111  0.00  0.00     0.131 A 
ATOM      2  C2  INB d   0      -3.429  -7.750  25.883  0.00  0.00     0.296 A 
ATOM      3  N1  INB d   0      -5.572  -7.724  26.541  0.00  0.00    -0.265 N 
ATOM      4  N2  INB d   0      -4.316  -8.305  26.738  0.00  0.00    -0.213 N 
ATOM      5  C3  INB d   0      -5.455  -6.795  25.535  0.00  0.00     0.075 A 
ATOM      6  O1  INB d   0      -2.231  -8.017  25.785  0.00  0.00    -0.264 OA
ATOM      7  C12 INB d   0      -6.303  -7.467  27.780  0.00  0.00     0.152 C 
ATOM      8  C13 INB d   0      -6.636  -5.918  25.149  0.00  0.00     0.053 C 
ENDROOT
BRANCH   1   9
ATOM      9  N4  INB d   0      -3.545  -5.973  24.156  0.00  0.00    -0.317 N 
ATOM     10  H1  INB d   0      -2.820  -5.372  24.518  0.00  0.00     0.169 HD
ATOM     11  C5  INB d   0      -3.712  -5.987  22.821  0.00  0.00     0.258 C 
ATOM     12  O4  INB d   0      -4.555  -6.654  22.223  0.00  0.00    -0.267 OA
BRANCH  11  13
ATOM     13  C7  INB d   0      -2.784  -5.084  22.058  0.00  0.00     0.058 A 
ATOM     14  C6  INB d   0      -2.200  -5.535  20.855  0.00  0.00     0.029 A 
ATOM     15  C4  INB d   0      -1.305  -4.718  20.127  0.00  0.00     0.133 A 
ATOM     16  C8  INB d   0      -0.997  -3.424  20.614  0.00  0.00     0.057 A 
ATOM     17  C11 INB d   0      -1.568  -2.977  21.820  0.00  0.00     0.009 A 
ATOM     18 Br   INB d   0       0.150  -2.230  19.664  0.00  0.00    -0.047 Br
ATOM     19  C10 INB d   0      -2.450  -3.800  22.545  0.00  0.00     0.005 A 
BRANCH  15  20
ATOM     20  N3  INB d   0      -0.721  -5.238  18.880  0.00  0.00    -0.113 N 
ATOM     21  O3  INB d   0       0.500  -5.254  18.771  0.00  0.00    -0.532 OA
ATOM     22  O2  INB d   0      -1.494  -5.663  18.029  0.00  0.00    -0.532 OA
ENDBRANCH  15  20
ENDBRANCH  11  13
ENDBRANCH   1   9
BRANCH   4  23
ATOM     23  C9  INB d   0      -4.123  -9.503  27.488  0.00  0.00     0.084 A 
ATOM     24  C14 INB d   0      -4.751 -10.703  27.082  0.00  0.00     0.019 A 
ATOM     25  C16 INB d   0      -4.576 -11.886  27.826  0.00  0.00     0.002 A 
ATOM     26  C18 INB d   0      -3.776 -11.876  28.984  0.00  0.00     0.000 A 
ATOM     27  C17 INB d   0      -3.152 -10.685  29.400  0.00  0.00     0.002 A 
ATOM     28  C15 INB d   0      -3.326  -9.501  28.655  0.00  0.00     0.019 A 
ENDBRANCH   4  23
TORSDOF 4
ENDMDL
MODEL 5
REMARK VINA RESULT:    -7.939      4.600      6.431
REMARK INTER + INTRA:          -9.302
REMARK INTER:                  -8.522
REMARK INTRA:                  -0.780
REMARK UNBOUND:                 0.494
REMARK  4 active torsions:
REMARK  status: ('A' for Active; 'I' for Inactive)
REMARK    1  A    between atoms: C1_1  and  N4_9 
REMARK    2  A    between atoms: C9_23  and  N2_4 
REMARK       I    between atoms: N4_9  and  C5_10 
REMARK    3  A    between atoms: C5_10  and  C7_13 
REMARK    4  A    between atoms: C4_15  and  N3_20 
ROOT
ATOM      1  C1  INB d   0      -4.107  -8.286  26.603  0.00  0.00     0.131 A 
ATOM      2  C2  INB d   0      -3.310  -7.901  25.453  0.00  0.00     0.296 A 
ATOM      3  N1  INB d   0      -5.172  -6.657  25.558  0.00  0.00    -0.265 N 
ATOM      4  N2  INB d   0      -3.994  -6.904  24.849  0.00  0.00    -0.213 N 
ATOM      5  C3  INB d   0      -5.209  -7.517  26.629  0.00  0.00     0.075 A 
ATOM      6  O1  INB d   0      -2.234  -8.381  25.095  0.00  0.00    -0.264 OA
ATOM      7  C12 INB d   0      -6.331  -6.397  24.706  0.00  0.00     0.152 C 
ATOM      8  C13 INB d   0      -6.422  -7.561  27.546  0.00  0.00     0.053 C 
ENDROOT
BRANCH   1   9
ATOM      9  N4  INB d   0      -3.710  -9.343  27.430  0.00  0.00    -0.317 N 
ATOM     10  H1  INB d   0      -2.913  -9.150  28.018  0.00  0.00     0.169 HD
ATOM     11  C5  INB d   0      -4.323 -10.527  27.611  0.00  0.00     0.258 C 
ATOM     12  O4  INB d   0      -5.299 -10.919  26.973  0.00  0.00    -0.267 OA
BRANCH  11  13
ATOM     13  C7  INB d   0      -3.713 -11.402  28.669  0.00  0.00     0.058 A 
ATOM     14  C6  INB d   0      -2.348 -11.753  28.587  0.00  0.00     0.029 A 
ATOM     15  C4  INB d   0      -1.750 -12.594  29.553  0.00  0.00     0.133 A 
ATOM     16  C8  INB d   0      -2.537 -13.086  30.624  0.00  0.00     0.057 A 
ATOM     17  C11 INB d   0      -3.902 -12.748  30.701  0.00  0.00     0.009 A 
ATOM     18 Br   INB d   0      -1.799 -14.174  32.007  0.00  0.00    -0.047 Br
ATOM     19  C10 INB d   0      -4.492 -11.919  29.729  0.00  0.00     0.005 A 
BRANCH  15  20
ATOM     20  N3  INB d   0      -0.324 -12.931  29.419  0.00  0.00    -0.113 N 
ATOM     21  O3  INB d   0      -0.023 -13.966  28.834  0.00  0.00    -0.532 OA
ATOM     22  O2  INB d   0       0.490 -12.134  29.870  0.00  0.00    -0.532 OA
ENDBRANCH  15  20
ENDBRANCH  11  13
ENDBRANCH   1   9
BRANCH   4  23
ATOM     23  C9  INB d   0      -3.481  -6.013  23.860  0.00  0.00     0.084 A 
ATOM     24  C14 INB d   0      -3.125  -4.691  24.212  0.00  0.00     0.019 A 
ATOM     25  C16 INB d   0      -2.631  -3.802  23.237  0.00  0.00     0.002 A 
ATOM     26  C18 INB d   0      -2.495  -4.227  21.902  0.00  0.00     0.000 A 
ATOM     27  C17 INB d   0      -2.854  -5.539  21.541  0.00  0.00     0.002 A 
ATOM     28  C15 INB d   0      -3.347  -6.429  22.515  0.00  0.00     0.019 A 
ENDBRANCH   4  23
TORSDOF 4
ENDMDL
MODEL 6
REMARK VINA RESULT:    -7.766      4.012      5.621
REMARK INTER + INTRA:          -9.088
REMARK INTER:                  -8.266
REMARK INTRA:                  -0.822
REMARK UNBOUND:                 0.494
REMARK  4 active torsions:
REMARK  status: ('A' for Active; 'I' for Inactive)
REMARK    1  A    between atoms: C1_1  and  N4_9 
REMARK    2  A    between atoms: C9_23  and  N2_4 
REMARK       I    between atoms: N4_9  and  C5_10 
REMARK    3  A    between atoms: C5_10  and  C7_13 
REMARK    4  A    between atoms: C4_15  and  N3_20 
ROOT
ATOM      1  C1  INB d   0      -3.542  -8.126  25.801  0.00  0.00     0.131 A 
ATOM      2  C2  INB d   0      -2.796  -7.672  24.642  0.00  0.00     0.296 A 
ATOM      3  N1  INB d   0      -4.741  -6.566  24.796  0.00  0.00    -0.265 N 
ATOM      4  N2  INB d   0      -3.561  -6.720  24.063  0.00  0.00    -0.213 N 
ATOM      5  C3  INB d   0      -4.696  -7.439  25.857  0.00  0.00     0.075 A 
ATOM      6  O1  INB d   0      -1.695  -8.068  24.259  0.00  0.00    -0.264 OA
ATOM      7  C12 INB d   0      -5.931  -6.382  23.968  0.00  0.00     0.152 C 
ATOM      8  C13 INB d   0      -5.885  -7.581  26.794  0.00  0.00     0.053 C 
ENDROOT
BRANCH   1   9
ATOM      9  N4  INB d   0      -3.054  -9.161  26.608  0.00  0.00    -0.317 N 
ATOM     10  H1  INB d   0      -2.675  -8.867  27.496  0.00  0.00     0.169 HD
ATOM     11  C5  INB d   0      -3.131 -10.486  26.390  0.00  0.00     0.258 C 
ATOM     12  O4  INB d   0      -3.558 -11.007  25.361  0.00  0.00    -0.267 OA
BRANCH  11  13
ATOM     13  C7  INB d   0      -2.622 -11.344  27.514  0.00  0.00     0.058 A 
ATOM     14  C6  INB d   0      -3.249 -11.288  28.777  0.00  0.00     0.029 A 
ATOM     15  C4  INB d   0      -2.778 -12.064  29.861  0.00  0.00     0.133 A 
ATOM     16  C8  INB d   0      -1.662 -12.916  29.669  0.00  0.00     0.057 A 
ATOM     17  C11 INB d   0      -1.027 -12.963  28.414  0.00  0.00     0.009 A 
ATOM     18 Br   INB d   0      -1.000 -14.046  31.057  0.00  0.00    -0.047 Br
ATOM     19  C10 INB d   0      -1.495 -12.179  27.343  0.00  0.00     0.005 A 
BRANCH  15  20
ATOM     20  N3  INB d   0      -3.467 -11.966  31.158  0.00  0.00    -0.113 N 
ATOM     21  O3  INB d   0      -3.166 -11.045  31.908  0.00  0.00    -0.532 OA
ATOM     22  O2  INB d   0      -4.335 -12.797  31.401  0.00  0.00    -0.532 OA
ENDBRANCH  15  20
ENDBRANCH  11  13
ENDBRANCH   1   9
BRANCH   4  23
ATOM     23  C9  INB d   0      -3.133  -5.783  23.076  0.00  0.00     0.084 A 
ATOM     24  C14 INB d   0      -2.968  -6.193  21.732  0.00  0.00     0.019 A 
ATOM     25  C16 INB d   0      -2.533  -5.277  20.756  0.00  0.00     0.002 A 
ATOM     26  C18 INB d   0      -2.253  -3.945  21.116  0.00  0.00     0.000 A 
ATOM     27  C17 INB d   0      -2.408  -3.529  22.451  0.00  0.00     0.002 A 
ATOM     28  C15 INB d   0      -2.845  -4.445  23.430  0.00  0.00     0.019 A 
ENDBRANCH   4  23
TORSDOF 4
ENDMDL
MODEL 7
REMARK VINA RESULT:    -7.761      3.664      8.911
REMARK INTER + INTRA:          -9.081
REMARK INTER:                  -8.463
REMARK INTRA:                  -0.618
REMARK UNBOUND:                 0.494
REMARK  4 active torsions:
REMARK  status: ('A' for Active; 'I' for Inactive)
REMARK    1  A    between atoms: C1_1  and  N4_9 
REMARK    2  A    between atoms: C9_23  and  N2_4 
REMARK       I    between atoms: N4_9  and  C5_10 
REMARK    3  A    between atoms: C5_10  and  C7_13 
REMARK    4  A    between atoms: C4_15  and  N3_20 
ROOT
ATOM      1  C1  INB d   0      -4.559  -6.656  25.840  0.00  0.00     0.131 A 
ATOM      2  C2  INB d   0      -3.672  -7.656  26.406  0.00  0.00     0.296 A 
ATOM      3  N1  INB d   0      -5.799  -8.107  26.952  0.00  0.00    -0.265 N 
ATOM      4  N2  INB d   0      -4.470  -8.521  27.071  0.00  0.00    -0.213 N 
ATOM      5  C3  INB d   0      -5.819  -6.965  26.188  0.00  0.00     0.075 A 
ATOM      6  O1  INB d   0      -2.445  -7.709  26.307  0.00  0.00    -0.264 OA
ATOM      7  C12 INB d   0      -6.576  -8.257  28.181  0.00  0.00     0.152 C 
ATOM      8  C13 INB d   0      -7.120  -6.211  25.956  0.00  0.00     0.053 C 
ENDROOT
BRANCH   1   9
ATOM      9  N4  INB d   0      -4.049  -5.567  25.123  0.00  0.00    -0.317 N 
ATOM     10  H1  INB d   0      -3.715  -4.801  25.690  0.00  0.00     0.169 HD
ATOM     11  C5  INB d   0      -3.854  -5.469  23.796  0.00  0.00     0.258 C 
ATOM     12  O4  INB d   0      -4.208  -6.308  22.968  0.00  0.00    -0.267 OA
BRANCH  11  13
ATOM     13  C7  INB d   0      -3.168  -4.210  23.347  0.00  0.00     0.058 A 
ATOM     14  C6  INB d   0      -2.191  -4.268  22.330  0.00  0.00     0.029 A 
ATOM     15  C4  INB d   0      -1.510  -3.105  21.904  0.00  0.00     0.133 A 
ATOM     16  C8  INB d   0      -1.822  -1.861  22.505  0.00  0.00     0.057 A 
ATOM     17  C11 INB d   0      -2.787  -1.802  23.529  0.00  0.00     0.009 A 
ATOM     18 Br   INB d   0      -0.999  -0.232  21.948  0.00  0.00    -0.047 Br
ATOM     19  C10 INB d   0      -3.452  -2.966  23.956  0.00  0.00     0.005 A 
BRANCH  15  20
ATOM     20  N3  INB d   0      -0.498  -3.222  20.842  0.00  0.00    -0.113 N 
ATOM     21  O3  INB d   0      -0.685  -2.620  19.791  0.00  0.00    -0.532 OA
ATOM     22  O2  INB d   0       0.500  -3.891  21.084  0.00  0.00    -0.532 OA
ENDBRANCH  15  20
ENDBRANCH  11  13
ENDBRANCH   1   9
BRANCH   4  23
ATOM     23  C9  INB d   0      -4.098  -9.816  27.539  0.00  0.00     0.084 A 
ATOM     24  C14 INB d   0      -3.507  -9.967  28.814  0.00  0.00     0.019 A 
ATOM     25  C16 INB d   0      -3.125 -11.242  29.276  0.00  0.00     0.002 A 
ATOM     26  C18 INB d   0      -3.327 -12.374  28.465  0.00  0.00     0.000 A 
ATOM     27  C17 INB d   0      -3.910 -12.233  27.191  0.00  0.00     0.002 A 
ATOM     28  C15 INB d   0      -4.293 -10.958  26.728  0.00  0.00     0.019 A 
ENDBRANCH   4  23
TORSDOF 4
ENDMDL
MODEL 8
REMARK VINA RESULT:    -7.502      3.601      8.871
REMARK INTER + INTRA:          -8.762
REMARK INTER:                  -8.482
REMARK INTRA:                  -0.279
REMARK UNBOUND:                 0.494
REMARK  4 active torsions:
REMARK  status: ('A' for Active; 'I' for Inactive)
REMARK    1  A    between atoms: C1_1  and  N4_9 
REMARK    2  A    between atoms: C9_23  and  N2_4 
REMARK       I    between atoms: N4_9  and  C5_10 
REMARK    3  A    between atoms: C5_10  and  C7_13 
REMARK    4  A    between atoms: C4_15  and  N3_20 
ROOT
ATOM      1  C1  INB d   0      -2.473  -5.134  25.474  0.00  0.00     0.131 A 
ATOM      2  C2  INB d   0      -3.698  -5.912  25.463  0.00  0.00     0.296 A 
ATOM      3  N1  INB d   0      -2.811  -5.889  27.522  0.00  0.00    -0.265 N 
ATOM      4  N2  INB d   0      -3.867  -6.348  26.731  0.00  0.00    -0.213 N 
ATOM      5  C3  INB d   0      -1.976  -5.145  26.722  0.00  0.00     0.075 A 
ATOM      6  O1  INB d   0      -4.434  -6.133  24.501  0.00  0.00    -0.264 OA
ATOM      7  C12 INB d   0      -2.320  -6.876  28.482  0.00  0.00     0.152 C 
ATOM      8  C13 INB d   0      -0.674  -4.583  27.272  0.00  0.00     0.053 C 
ENDROOT
BRANCH   1   9
ATOM      9  N4  INB d   0      -1.969  -4.571  24.295  0.00  0.00    -0.317 N 
ATOM     10  H1  INB d   0      -1.252  -5.113  23.835  0.00  0.00     0.169 HD
ATOM     11  C5  INB d   0      -2.398  -3.468  23.656  0.00  0.00     0.258 C 
ATOM     12  O4  INB d   0      -3.256  -2.696  24.082  0.00  0.00    -0.267 OA
BRANCH  11  13
ATOM     13  C7  INB d   0      -1.727  -3.197  22.339  0.00  0.00     0.058 A 
ATOM     14  C6  INB d   0      -1.582  -4.239  21.399  0.00  0.00     0.029 A 
ATOM     15  C4  INB d   0      -0.934  -4.022  20.161  0.00  0.00     0.133 A 
ATOM     16  C8  INB d   0      -0.429  -2.732  19.862  0.00  0.00     0.057 A 
ATOM     17  C11 INB d   0      -0.561  -1.694  20.803  0.00  0.00     0.009 A 
ATOM     18 Br   INB d   0       0.402  -2.333  18.191  0.00  0.00    -0.047 Br
ATOM     19  C10 INB d   0      -1.198  -1.921  22.037  0.00  0.00     0.005 A 
BRANCH  15  20
ATOM     20  N3  INB d   0      -0.807  -5.144  19.218  0.00  0.00    -0.113 N 
ATOM     21  O3  INB d   0      -1.782  -5.864  19.036  0.00  0.00    -0.532 OA
ATOM     22  O2  INB d   0       0.264  -5.275  18.636  0.00  0.00    -0.532 OA
ENDBRANCH  15  20
ENDBRANCH  11  13
ENDBRANCH   1   9
BRANCH   4  23
ATOM     23  C9  INB d   0      -5.064  -6.899  27.277  0.00  0.00     0.084 A 
ATOM     24  C14 INB d   0      -6.081  -6.044  27.763  0.00  0.00     0.019 A 
ATOM     25  C16 INB d   0      -7.259  -6.581  28.316  0.00  0.00     0.002 A 
ATOM     26  C18 INB d   0      -7.428  -7.977  28.392  0.00  0.00     0.000 A 
ATOM     27  C17 INB d   0      -6.419  -8.835  27.917  0.00  0.00     0.002 A 
ATOM     28  C15 INB d   0      -5.240  -8.299  27.362  0.00  0.00     0.019 A 
ENDBRANCH   4  23
TORSDOF 4
ENDMDL
MODEL 9
REMARK VINA RESULT:    -7.461      3.100      4.874
REMARK INTER + INTRA:          -8.712
REMARK INTER:                  -7.983
REMARK INTRA:                  -0.729
REMARK UNBOUND:                 0.494
REMARK  4 active torsions:
REMARK  status: ('A' for Active; 'I' for Inactive)
REMARK    1  A    between atoms: C1_1  and  N4_9 
REMARK    2  A    between atoms: C9_23  and  N2_4 
REMARK       I    between atoms: N4_9  and  C5_10 
REMARK    3  A    between atoms: C5_10  and  C7_13 
REMARK    4  A    between atoms: C4_15  and  N3_20 
ROOT
ATOM      1  C1  INB d   0      -3.334  -6.208  25.060  0.00  0.00     0.131 A 
ATOM      2  C2  INB d   0      -2.550  -5.064  25.488  0.00  0.00     0.296 A 
ATOM      3  N1  INB d   0      -3.264  -4.771  23.383  0.00  0.00    -0.265 N 
ATOM      4  N2  INB d   0      -2.537  -4.213  24.438  0.00  0.00    -0.213 N 
ATOM      5  C3  INB d   0      -3.743  -5.991  23.798  0.00  0.00     0.075 A 
ATOM      6  O1  INB d   0      -2.005  -4.898  26.580  0.00  0.00    -0.264 OA
ATOM      7  C12 INB d   0      -2.657  -4.560  22.071  0.00  0.00     0.152 C 
ATOM      8  C13 INB d   0      -4.498  -6.895  22.836  0.00  0.00     0.053 C 
ENDROOT
BRANCH   1   9
ATOM      9  N4  INB d   0      -3.506  -7.316  25.899  0.00  0.00    -0.317 N 
ATOM     10  H1  INB d   0      -2.663  -7.830  26.106  0.00  0.00     0.169 HD
ATOM     11  C5  INB d   0      -4.625  -7.703  26.538  0.00  0.00     0.258 C 
ATOM     12  O4  INB d   0      -5.733  -7.190  26.392  0.00  0.00    -0.267 OA
BRANCH  11  13
ATOM     13  C7  INB d   0      -4.451  -8.868  27.471  0.00  0.00     0.058 A 
ATOM     14  C6  INB d   0      -3.415  -8.850  28.429  0.00  0.00     0.029 A 
ATOM     15  C4  INB d   0      -3.210  -9.941  29.304  0.00  0.00     0.133 A 
ATOM     16  C8  INB d   0      -4.066 -11.067  29.218  0.00  0.00     0.057 A 
ATOM     17  C11 INB d   0      -5.091 -11.093  28.254  0.00  0.00     0.009 A 
ATOM     18 Br   INB d   0      -3.902 -12.556  30.400  0.00  0.00    -0.047 Br
ATOM     19  C10 INB d   0      -5.282 -10.008  27.379  0.00  0.00     0.005 A 
BRANCH  15  20
ATOM     20  N3  INB d   0      -2.113  -9.872  30.283  0.00  0.00    -0.113 N 
ATOM     21  O3  INB d   0      -1.002 -10.261  29.941  0.00  0.00    -0.532 OA
ATOM     22  O2  INB d   0      -2.366  -9.392  31.382  0.00  0.00    -0.532 OA
ENDBRANCH  15  20
ENDBRANCH  11  13
ENDBRANCH   1   9
BRANCH   4  23
ATOM     23  C9  INB d   0      -2.149  -2.841  24.473  0.00  0.00     0.084 A 
ATOM     24  C14 INB d   0      -0.802  -2.492  24.725  0.00  0.00     0.019 A 
ATOM     25  C16 INB d   0      -0.414  -1.138  24.774  0.00  0.00     0.002 A 
ATOM     26  C18 INB d   0      -1.371  -0.125  24.578  0.00  0.00     0.000 A 
ATOM     27  C17 INB d   0      -2.715  -0.463  24.334  0.00  0.00     0.002 A 
ATOM     28  C15 INB d   0      -3.104  -1.817  24.283  0.00  0.00     0.019 A 
ENDBRANCH   4  23
TORSDOF 4
ENDMDL
MODEL 10
REMARK VINA RESULT:    -7.376      4.125      9.539
REMARK INTER + INTRA:          -8.607
REMARK INTER:                  -7.886
REMARK INTRA:                  -0.720
REMARK UNBOUND:                 0.494
REMARK  4 active torsions:
REMARK  status: ('A' for Active; 'I' for Inactive)
REMARK    1  A    between atoms: C1_1  and  N4_9 
REMARK    2  A    between atoms: C9_23  and  N2_4 
REMARK       I    between atoms: N4_9  and  C5_10 
REMARK    3  A    between atoms: C5_10  and  C7_13 
REMARK    4  A    between atoms: C4_15  and  N3_20 
ROOT
ATOM      1  C1  INB d   0      -3.141  -9.369  25.758  0.00  0.00     0.131 A 
ATOM      2  C2  INB d   0      -3.202  -9.520  27.200  0.00  0.00     0.296 A 
ATOM      3  N1  INB d   0      -3.425 -11.514  26.200  0.00  0.00    -0.265 N 
ATOM      4  N2  INB d   0      -3.371 -10.843  27.424  0.00  0.00    -0.213 N 
ATOM      5  C3  INB d   0      -3.276 -10.583  25.199  0.00  0.00     0.075 A 
ATOM      6  O1  INB d   0      -3.119  -8.633  28.049  0.00  0.00    -0.264 OA
ATOM      7  C12 INB d   0      -4.427 -12.578  26.154  0.00  0.00     0.152 C 
ATOM      8  C13 INB d   0      -3.388 -10.991  23.738  0.00  0.00     0.053 C 
ENDROOT
BRANCH   1   9
ATOM      9  N4  INB d   0      -3.021  -8.102  25.174  0.00  0.00    -0.317 N 
ATOM     10  H1  INB d   0      -2.084  -7.730  25.148  0.00  0.00     0.169 HD
ATOM     11  C5  INB d   0      -3.976  -7.384  24.554  0.00  0.00     0.258 C 
ATOM     12  O4  INB d   0      -5.166  -7.692  24.500  0.00  0.00    -0.267 OA
BRANCH  11  13
ATOM     13  C7  INB d   0      -3.497  -6.110  23.917  0.00  0.00     0.058 A 
ATOM     14  C6  INB d   0      -2.784  -6.160  22.700  0.00  0.00     0.029 A 
ATOM     15  C4  INB d   0      -2.299  -4.981  22.089  0.00  0.00     0.133 A 
ATOM     16  C8  INB d   0      -2.542  -3.730  22.709  0.00  0.00     0.057 A 
ATOM     17  C11 INB d   0      -3.241  -3.679  23.929  0.00  0.00     0.009 A 
ATOM     18 Br   INB d   0      -1.980  -2.084  21.922  0.00  0.00    -0.047 Br
ATOM     19  C10 INB d   0      -3.712  -4.858  24.537  0.00  0.00     0.005 A 
BRANCH  15  20
ATOM     20  N3  INB d   0      -1.558  -5.089  20.822  0.00  0.00    -0.113 N 
ATOM     21  O3  INB d   0      -0.373  -4.778  20.812  0.00  0.00    -0.532 OA
ATOM     22  O2  INB d   0      -2.164  -5.524  19.849  0.00  0.00    -0.532 OA
ENDBRANCH  15  20
ENDBRANCH  11  13
ENDBRANCH   1   9
BRANCH   4  23
ATOM     23  C9  INB d   0      -3.196 -11.513  28.670  0.00  0.00     0.084 A 
ATOM     24  C14 INB d   0      -1.965 -12.140  28.972  0.00  0.00     0.019 A 
ATOM     25  C16 INB d   0      -1.790 -12.815  30.196  0.00  0.00     0.002 A 
ATOM     26  C18 INB d   0      -2.847 -12.873  31.125  0.00  0.00     0.000 A 
ATOM     27  C17 INB d   0      -4.078 -12.258  30.830  0.00  0.00     0.002 A 
ATOM     28  C15 INB d   0      -4.253 -11.581  29.606  0.00  0.00     0.019 A 
ENDBRANCH   4  23
TORSDOF 4
ENDMDL
