MODEL 1
REMARK VINA RESULT:    -6.583      0.000      0.000
REMARK INTER + INTRA:         -10.476
REMARK INTER:                  -9.277
REMARK INTRA:                  -1.199
REMARK UNBOUND:                -1.199
REMARK  7 active torsions:
REMARK  status: ('A' for Active; 'I' for Inactive)
REMARK    1  A    between atoms: C1_1  and  N1_11 
REMARK    2  A    between atoms: C2_2  and  C5_20 
REMARK       I    between atoms: N1_11  and  C7_12 
REMARK    3  A    between atoms: C7_12  and  C10_15 
REMARK    4  A    between atoms: C10_15  and  C11_16 
REMARK    5  A    between atoms: C11_16  and  C8_17 
REMARK    6  A    between atoms: O5_22  and  C5_20 
REMARK    7  A    between atoms: O5_22  and  C14_23 
ROOT
ATOM      1  C1  INB d   0      -4.800  -8.718  25.940  0.00  0.00     0.094 A 
ATOM      2  C2  INB d   0      -3.745  -9.506  25.494  0.00  0.00     0.082 A 
ATOM      3  C3  INB d   0      -3.331 -10.481  26.471  0.00  0.00    -0.006 A 
ATOM      4  C4  INB d   0      -4.075 -10.407  27.617  0.00  0.00     0.062 A 
ATOM      5  S1  INB d   0      -5.314  -9.196  27.537  0.00  0.00    -0.067 SA
ATOM      6  C6  INB d   0      -3.925 -11.236  28.806  0.00  0.00     0.179 C 
ATOM      7  O2  INB d   0      -4.658 -11.155  29.791  0.00  0.00    -0.291 OA
ATOM      8  C9  INB d   0      -2.240 -11.517  26.344  0.00  0.00     0.028 C 
ATOM      9  C12 INB d   0      -2.760 -12.229  28.779  0.00  0.00     0.070 C 
ATOM     10  C13 INB d   0      -2.419 -12.685  27.342  0.00  0.00     0.013 C 
ENDROOT
BRANCH   1  11
ATOM     11  N1  INB d   0      -5.454  -7.698  25.329  0.00  0.00    -0.320 N 
ATOM     12  H1  INB d   0      -6.186  -7.951  24.682  0.00  0.00     0.169 HD
ATOM     13  C7  INB d   0      -5.359  -6.398  25.661  0.00  0.00     0.235 C 
ATOM     14  O3  INB d   0      -4.290  -5.792  25.745  0.00  0.00    -0.272 OA
BRANCH  13  15
ATOM     15  C10 INB d   0      -6.680  -5.678  25.943  0.00  0.00     0.099 C 
BRANCH  15  16
ATOM     16  C11 INB d   0      -7.699  -6.578  26.675  0.00  0.00     0.107 C 
BRANCH  16  17
ATOM     17  C8  INB d   0      -7.612  -6.466  28.201  0.00  0.00     0.186 C 
ATOM     18  O6  INB d   0      -8.180  -7.367  28.856  0.00  0.00    -0.647 OA
ATOM     19  O4  INB d   0      -6.994  -5.498  28.698  0.00  0.00    -0.647 OA
ENDBRANCH  16  17
ENDBRANCH  15  16
ENDBRANCH  13  15
ENDBRANCH   1  11
BRANCH   2  20
ATOM     20  C5  INB d   0      -3.152  -9.362  24.158  0.00  0.00     0.297 C 
ATOM     21  O1  INB d   0      -3.272 -10.186  23.249  0.00  0.00    -0.259 OA
BRANCH  20  22
ATOM     22  O5  INB d   0      -2.465  -8.209  24.011  0.00  0.00    -0.298 OA
BRANCH  22  23
ATOM     23  C14 INB d   0      -2.774  -7.298  22.964  0.00  0.00     0.152 C 
ATOM     24  C15 INB d   0      -1.820  -6.096  22.989  0.00  0.00     0.035 C 
ENDBRANCH  22  23
ENDBRANCH  20  22
ENDBRANCH   2  20
TORSDOF 7
ENDMDL
MODEL 2
REMARK VINA RESULT:    -6.475      2.569      5.997
REMARK INTER + INTRA:         -10.323
REMARK INTER:                  -9.392
REMARK INTRA:                  -0.931
REMARK UNBOUND:                -1.199
REMARK  7 active torsions:
REMARK  status: ('A' for Active; 'I' for Inactive)
REMARK    1  A    between atoms: C1_1  and  N1_11 
REMARK    2  A    between atoms: C2_2  and  C5_20 
REMARK       I    between atoms: N1_11  and  C7_12 
REMARK    3  A    between atoms: C7_12  and  C10_15 
REMARK    4  A    between atoms: C10_15  and  C11_16 
REMARK    5  A    between atoms: C11_16  and  C8_17 
REMARK    6  A    between atoms: O5_22  and  C5_20 
REMARK    7  A    between atoms: O5_22  and  C14_23 
ROOT
ATOM      1  C1  INB d   0      -4.445  -7.241  24.136  0.00  0.00     0.094 A 
ATOM      2  C2  INB d   0      -4.333  -8.324  25.000  0.00  0.00     0.082 A 
ATOM      3  C3  INB d   0      -5.166  -8.188  26.169  0.00  0.00    -0.006 A 
ATOM      4  C4  INB d   0      -5.880  -7.020  26.157  0.00  0.00     0.062 A 
ATOM      5  S1  INB d   0      -5.602  -6.077  24.729  0.00  0.00    -0.067 SA
ATOM      6  C6  INB d   0      -6.812  -6.562  27.178  0.00  0.00     0.179 C 
ATOM      7  O2  INB d   0      -7.464  -5.522  27.090  0.00  0.00    -0.291 OA
ATOM      8  C9  INB d   0      -5.326  -9.160  27.313  0.00  0.00     0.028 C 
ATOM      9  C12 INB d   0      -6.929  -7.453  28.418  0.00  0.00     0.070 C 
ATOM     10  C13 INB d   0      -6.642  -8.937  28.096  0.00  0.00     0.013 C 
ENDROOT
BRANCH   1  11
ATOM     11  N1  INB d   0      -3.826  -6.992  22.955  0.00  0.00    -0.320 N 
ATOM     12  H1  INB d   0      -4.362  -7.160  22.117  0.00  0.00     0.169 HD
ATOM     13  C7  INB d   0      -2.653  -6.351  22.808  0.00  0.00     0.235 C 
ATOM     14  O3  INB d   0      -1.619  -6.677  23.394  0.00  0.00    -0.272 OA
BRANCH  13  15
ATOM     15  C10 INB d   0      -2.655  -5.156  21.851  0.00  0.00     0.099 C 
BRANCH  15  16
ATOM     16  C11 INB d   0      -2.771  -5.583  20.372  0.00  0.00     0.107 C 
BRANCH  16  17
ATOM     17  C8  INB d   0      -1.481  -5.351  19.578  0.00  0.00     0.186 C 
ATOM     18  O6  INB d   0      -0.611  -4.644  20.130  0.00  0.00    -0.647 OA
ATOM     19  O4  INB d   0      -1.372  -5.867  18.443  0.00  0.00    -0.647 OA
ENDBRANCH  16  17
ENDBRANCH  15  16
ENDBRANCH  13  15
ENDBRANCH   1  11
BRANCH   2  20
ATOM     20  C5  INB d   0      -3.474  -9.482  24.720  0.00  0.00     0.297 C 
ATOM     21  O1  INB d   0      -3.444 -10.083  23.644  0.00  0.00    -0.259 OA
BRANCH  20  22
ATOM     22  O5  INB d   0      -2.692  -9.820  25.768  0.00  0.00    -0.298 OA
BRANCH  22  23
ATOM     23  C14 INB d   0      -2.165 -11.135  25.896  0.00  0.00     0.152 C 
ATOM     24  C15 INB d   0      -3.022 -11.974  26.852  0.00  0.00     0.035 C 
ENDBRANCH  22  23
ENDBRANCH  20  22
ENDBRANCH   2  20
TORSDOF 7
ENDMDL
MODEL 3
REMARK VINA RESULT:    -6.426      2.078      5.507
REMARK INTER + INTRA:         -10.255
REMARK INTER:                  -9.177
REMARK INTRA:                  -1.078
REMARK UNBOUND:                -1.199
REMARK  7 active torsions:
REMARK  status: ('A' for Active; 'I' for Inactive)
REMARK    1  A    between atoms: C1_1  and  N1_11 
REMARK    2  A    between atoms: C2_2  and  C5_20 
REMARK       I    between atoms: N1_11  and  C7_12 
REMARK    3  A    between atoms: C7_12  and  C10_15 
REMARK    4  A    between atoms: C10_15  and  C11_16 
REMARK    5  A    between atoms: C11_16  and  C8_17 
REMARK    6  A    between atoms: O5_22  and  C5_20 
REMARK    7  A    between atoms: O5_22  and  C14_23 
ROOT
ATOM      1  C1  INB d   0      -3.745  -8.549  25.399  0.00  0.00     0.094 A 
ATOM      2  C2  INB d   0      -4.392  -7.326  25.267  0.00  0.00     0.082 A 
ATOM      3  C3  INB d   0      -5.488  -7.178  26.192  0.00  0.00    -0.006 A 
ATOM      4  C4  INB d   0      -5.638  -8.279  26.990  0.00  0.00     0.062 A 
ATOM      5  S1  INB d   0      -4.448  -9.501  26.681  0.00  0.00    -0.067 SA
ATOM      6  C6  INB d   0      -6.644  -8.469  28.028  0.00  0.00     0.179 C 
ATOM      7  O2  INB d   0      -6.700  -9.464  28.749  0.00  0.00    -0.291 OA
ATOM      8  C9  INB d   0      -6.406  -5.990  26.360  0.00  0.00     0.028 C 
ATOM      9  C12 INB d   0      -7.674  -7.345  28.167  0.00  0.00     0.070 C 
ATOM     10  C13 INB d   0      -7.099  -5.975  27.743  0.00  0.00     0.013 C 
ENDROOT
BRANCH   1  11
ATOM     11  N1  INB d   0      -2.692  -9.064  24.715  0.00  0.00    -0.320 N 
ATOM     12  H1  INB d   0      -1.794  -8.632  24.872  0.00  0.00     0.169 HD
ATOM     13  C7  INB d   0      -2.700 -10.214  24.019  0.00  0.00     0.235 C 
ATOM     14  O3  INB d   0      -3.524 -10.474  23.140  0.00  0.00    -0.272 OA
BRANCH  13  15
ATOM     15  C10 INB d   0      -1.607 -11.224  24.376  0.00  0.00     0.099 C 
BRANCH  15  16
ATOM     16  C11 INB d   0      -1.137 -11.093  25.841  0.00  0.00     0.107 C 
BRANCH  16  17
ATOM     17  C8  INB d   0      -1.415 -12.349  26.675  0.00  0.00     0.186 C 
ATOM     18  O6  INB d   0      -0.413 -12.982  27.073  0.00  0.00    -0.647 OA
ATOM     19  O4  INB d   0      -2.603 -12.668  26.904  0.00  0.00    -0.647 OA
ENDBRANCH  16  17
ENDBRANCH  15  16
ENDBRANCH  13  15
ENDBRANCH   1  11
BRANCH   2  20
ATOM     20  C5  INB d   0      -3.970  -6.301  24.304  0.00  0.00     0.297 C 
ATOM     21  O1  INB d   0      -3.768  -5.118  24.588  0.00  0.00    -0.259 OA
BRANCH  20  22
ATOM     22  O5  INB d   0      -3.804  -6.790  23.056  0.00  0.00    -0.298 OA
BRANCH  22  23
ATOM     23  C14 INB d   0      -2.591  -6.584  22.343  0.00  0.00     0.152 C 
ATOM     24  C15 INB d   0      -2.853  -5.831  21.032  0.00  0.00     0.035 C 
ENDBRANCH  22  23
ENDBRANCH  20  22
ENDBRANCH   2  20
TORSDOF 7
ENDMDL
MODEL 4
REMARK VINA RESULT:    -6.360      2.668      5.487
REMARK INTER + INTRA:         -10.162
REMARK INTER:                  -9.004
REMARK INTRA:                  -1.158
REMARK UNBOUND:                -1.199
REMARK  7 active torsions:
REMARK  status: ('A' for Active; 'I' for Inactive)
REMARK    1  A    between atoms: C1_1  and  N1_11 
REMARK    2  A    between atoms: C2_2  and  C5_20 
REMARK       I    between atoms: N1_11  and  C7_12 
REMARK    3  A    between atoms: C7_12  and  C10_15 
REMARK    4  A    between atoms: C10_15  and  C11_16 
REMARK    5  A    between atoms: C11_16  and  C8_17 
REMARK    6  A    between atoms: O5_22  and  C5_20 
REMARK    7  A    between atoms: O5_22  and  C14_23 
ROOT
ATOM      1  C1  INB d   0      -3.434  -8.269  23.953  0.00  0.00     0.094 A 
ATOM      2  C2  INB d   0      -4.361  -7.902  24.920  0.00  0.00     0.082 A 
ATOM      3  C3  INB d   0      -4.561  -8.928  25.914  0.00  0.00    -0.006 A 
ATOM      4  C4  INB d   0      -3.786 -10.031  25.675  0.00  0.00     0.062 A 
ATOM      5  S1  INB d   0      -2.772  -9.851  24.280  0.00  0.00    -0.067 SA
ATOM      6  C6  INB d   0      -3.740 -11.249  26.473  0.00  0.00     0.179 C 
ATOM      7  O2  INB d   0      -2.986 -12.191  26.235  0.00  0.00    -0.291 OA
ATOM      8  C9  INB d   0      -5.468  -8.888  27.120  0.00  0.00     0.028 C 
ATOM      9  C12 INB d   0      -4.723 -11.312  27.645  0.00  0.00     0.070 C 
ATOM     10  C13 INB d   0      -5.050  -9.909  28.204  0.00  0.00     0.013 C 
ENDROOT
BRANCH   1  11
ATOM     11  N1  INB d   0      -2.988  -7.596  22.863  0.00  0.00    -0.320 N 
ATOM     12  H1  INB d   0      -3.394  -7.852  21.975  0.00  0.00     0.169 HD
ATOM     13  C7  INB d   0      -2.222  -6.492  22.886  0.00  0.00     0.235 C 
ATOM     14  O3  INB d   0      -1.151  -6.416  23.491  0.00  0.00    -0.272 OA
BRANCH  13  15
ATOM     15  C10 INB d   0      -2.753  -5.288  22.104  0.00  0.00     0.099 C 
BRANCH  15  16
ATOM     16  C11 INB d   0      -2.905  -5.582  20.596  0.00  0.00     0.107 C 
BRANCH  16  17
ATOM     17  C8  INB d   0      -1.619  -5.327  19.802  0.00  0.00     0.186 C 
ATOM     18  O6  INB d   0      -0.805  -4.527  20.311  0.00  0.00    -0.647 OA
ATOM     19  O4  INB d   0      -1.459  -5.917  18.711  0.00  0.00    -0.647 OA
ENDBRANCH  16  17
ENDBRANCH  15  16
ENDBRANCH  13  15
ENDBRANCH   1  11
BRANCH   2  20
ATOM     20  C5  INB d   0      -5.032  -6.596  24.926  0.00  0.00     0.297 C 
ATOM     21  O1  INB d   0      -5.851  -6.229  24.081  0.00  0.00    -0.259 OA
BRANCH  20  22
ATOM     22  O5  INB d   0      -4.672  -5.826  25.976  0.00  0.00    -0.298 OA
BRANCH  22  23
ATOM     23  C14 INB d   0      -3.307  -5.513  26.223  0.00  0.00     0.152 C 
ATOM     24  C15 INB d   0      -2.907  -5.914  27.649  0.00  0.00     0.035 C 
ENDBRANCH  22  23
ENDBRANCH  20  22
ENDBRANCH   2  20
TORSDOF 7
ENDMDL
MODEL 5
REMARK VINA RESULT:    -6.342      2.046      6.203
REMARK INTER + INTRA:         -10.137
REMARK INTER:                  -9.096
REMARK INTRA:                  -1.041
REMARK UNBOUND:                -1.199
REMARK  7 active torsions:
REMARK  status: ('A' for Active; 'I' for Inactive)
REMARK    1  A    between atoms: C1_1  and  N1_11 
REMARK    2  A    between atoms: C2_2  and  C5_20 
REMARK       I    between atoms: N1_11  and  C7_12 
REMARK    3  A    between atoms: C7_12  and  C10_15 
REMARK    4  A    between atoms: C10_15  and  C11_16 
REMARK    5  A    between atoms: C11_16  and  C8_17 
REMARK    6  A    between atoms: O5_22  and  C5_20 
REMARK    7  A    between atoms: O5_22  and  C14_23 
ROOT
ATOM      1  C1  INB d   0      -4.771  -7.904  25.980  0.00  0.00     0.094 A 
ATOM      2  C2  INB d   0      -5.120  -6.690  25.401  0.00  0.00     0.082 A 
ATOM      3  C3  INB d   0      -3.988  -6.004  24.828  0.00  0.00    -0.006 A 
ATOM      4  C4  INB d   0      -2.827  -6.711  24.985  0.00  0.00     0.062 A 
ATOM      5  S1  INB d   0      -3.067  -8.230  25.786  0.00  0.00    -0.067 SA
ATOM      6  C6  INB d   0      -1.500  -6.313  24.533  0.00  0.00     0.179 C 
ATOM      7  O2  INB d   0      -0.498  -7.015  24.660  0.00  0.00    -0.291 OA
ATOM      8  C9  INB d   0      -3.975  -4.680  24.103  0.00  0.00     0.028 C 
ATOM      9  C12 INB d   0      -1.406  -4.926  23.892  0.00  0.00     0.070 C 
ATOM     10  C13 INB d   0      -2.728  -4.514  23.204  0.00  0.00     0.013 C 
ENDROOT
BRANCH   1  11
ATOM     11  N1  INB d   0      -5.535  -8.823  26.622  0.00  0.00    -0.320 N 
ATOM     12  H1  INB d   0      -6.354  -9.153  26.134  0.00  0.00     0.169 HD
ATOM     13  C7  INB d   0      -5.190  -9.480  27.743  0.00  0.00     0.235 C 
ATOM     14  O3  INB d   0      -4.822  -8.920  28.776  0.00  0.00    -0.272 OA
BRANCH  13  15
ATOM     15  C10 INB d   0      -5.273 -11.008  27.679  0.00  0.00     0.099 C 
BRANCH  15  16
ATOM     16  C11 INB d   0      -4.262 -11.615  26.682  0.00  0.00     0.107 C 
BRANCH  16  17
ATOM     17  C8  INB d   0      -3.051 -12.255  27.369  0.00  0.00     0.186 C 
ATOM     18  O6  INB d   0      -2.122 -12.627  26.619  0.00  0.00    -0.647 OA
ATOM     19  O4  INB d   0      -3.060 -12.373  28.614  0.00  0.00    -0.647 OA
ENDBRANCH  16  17
ENDBRANCH  15  16
ENDBRANCH  13  15
ENDBRANCH   1  11
BRANCH   2  20
ATOM     20  C5  INB d   0      -6.501  -6.192  25.365  0.00  0.00     0.297 C 
ATOM     21  O1  INB d   0      -7.212  -6.183  24.358  0.00  0.00    -0.259 OA
BRANCH  20  22
ATOM     22  O5  INB d   0      -6.932  -5.753  26.567  0.00  0.00    -0.298 OA
BRANCH  22  23
ATOM     23  C14 INB d   0      -7.876  -6.499  27.325  0.00  0.00     0.152 C 
ATOM     24  C15 INB d   0      -7.457  -6.568  28.800  0.00  0.00     0.035 C 
ENDBRANCH  22  23
ENDBRANCH  20  22
ENDBRANCH   2  20
TORSDOF 7
ENDMDL
MODEL 6
REMARK VINA RESULT:    -6.339      2.012      4.609
REMARK INTER + INTRA:         -10.132
REMARK INTER:                  -9.402
REMARK INTRA:                  -0.731
REMARK UNBOUND:                -1.199
REMARK  7 active torsions:
REMARK  status: ('A' for Active; 'I' for Inactive)
REMARK    1  A    between atoms: C1_1  and  N1_11 
REMARK    2  A    between atoms: C2_2  and  C5_20 
REMARK       I    between atoms: N1_11  and  C7_12 
REMARK    3  A    between atoms: C7_12  and  C10_15 
REMARK    4  A    between atoms: C10_15  and  C11_16 
REMARK    5  A    between atoms: C11_16  and  C8_17 
REMARK    6  A    between atoms: O5_22  and  C5_20 
REMARK    7  A    between atoms: O5_22  and  C14_23 
ROOT
ATOM      1  C1  INB d   0      -4.825  -8.814  26.145  0.00  0.00     0.094 A 
ATOM      2  C2  INB d   0      -5.071  -9.632  27.241  0.00  0.00     0.082 A 
ATOM      3  C3  INB d   0      -4.066 -10.652  27.407  0.00  0.00    -0.006 A 
ATOM      4  C4  INB d   0      -3.096 -10.578  26.444  0.00  0.00     0.062 A 
ATOM      5  S1  INB d   0      -3.342  -9.262  25.342  0.00  0.00    -0.067 SA
ATOM      6  C6  INB d   0      -1.937 -11.451  26.310  0.00  0.00     0.179 C 
ATOM      7  O2  INB d   0      -1.070 -11.306  25.449  0.00  0.00    -0.291 OA
ATOM      8  C9  INB d   0      -3.982 -11.706  28.485  0.00  0.00     0.028 C 
ATOM      9  C12 INB d   0      -1.861 -12.610  27.307  0.00  0.00     0.070 C 
ATOM     10  C13 INB d   0      -2.550 -12.269  28.647  0.00  0.00     0.013 C 
ENDROOT
BRANCH   1  11
ATOM     11  N1  INB d   0      -5.533  -7.765  25.655  0.00  0.00    -0.320 N 
ATOM     12  H1  INB d   0      -6.204  -7.340  26.278  0.00  0.00     0.169 HD
ATOM     13  C7  INB d   0      -5.275  -7.118  24.505  0.00  0.00     0.235 C 
ATOM     14  O3  INB d   0      -5.168  -7.681  23.414  0.00  0.00    -0.272 OA
BRANCH  13  15
ATOM     15  C10 INB d   0      -5.113  -5.599  24.610  0.00  0.00     0.099 C 
BRANCH  15  16
ATOM     16  C11 INB d   0      -3.634  -5.167  24.697  0.00  0.00     0.107 C 
BRANCH  16  17
ATOM     17  C8  INB d   0      -3.235  -4.170  23.603  0.00  0.00     0.186 C 
ATOM     18  O6  INB d   0      -2.887  -4.661  22.507  0.00  0.00    -0.647 OA
ATOM     19  O4  INB d   0      -3.273  -2.946  23.862  0.00  0.00    -0.647 OA
ENDBRANCH  16  17
ENDBRANCH  15  16
ENDBRANCH  13  15
ENDBRANCH   1  11
BRANCH   2  20
ATOM     20  C5  INB d   0      -6.221  -9.443  28.134  0.00  0.00     0.297 C 
ATOM     21  O1  INB d   0      -7.094 -10.289  28.336  0.00  0.00    -0.259 OA
BRANCH  20  22
ATOM     22  O5  INB d   0      -6.220  -8.236  28.741  0.00  0.00    -0.298 OA
BRANCH  22  23
ATOM     23  C14 INB d   0      -7.392  -7.431  28.773  0.00  0.00     0.152 C 
ATOM     24  C15 INB d   0      -7.085  -6.004  28.299  0.00  0.00     0.035 C 
ENDBRANCH  22  23
ENDBRANCH  20  22
ENDBRANCH   2  20
TORSDOF 7
ENDMDL
MODEL 7
REMARK VINA RESULT:    -6.268      2.689      5.065
REMARK INTER + INTRA:         -10.032
REMARK INTER:                  -8.710
REMARK INTRA:                  -1.321
REMARK UNBOUND:                -1.199
REMARK  7 active torsions:
REMARK  status: ('A' for Active; 'I' for Inactive)
REMARK    1  A    between atoms: C1_1  and  N1_11 
REMARK    2  A    between atoms: C2_2  and  C5_20 
REMARK       I    between atoms: N1_11  and  C7_12 
REMARK    3  A    between atoms: C7_12  and  C10_15 
REMARK    4  A    between atoms: C10_15  and  C11_16 
REMARK    5  A    between atoms: C11_16  and  C8_17 
REMARK    6  A    between atoms: O5_22  and  C5_20 
REMARK    7  A    between atoms: O5_22  and  C14_23 
ROOT
ATOM      1  C1  INB d   0      -5.041  -7.058  26.991  0.00  0.00     0.094 A 
ATOM      2  C2  INB d   0      -4.640  -6.211  25.965  0.00  0.00     0.082 A 
ATOM      3  C3  INB d   0      -3.367  -5.586  26.229  0.00  0.00    -0.006 A 
ATOM      4  C4  INB d   0      -2.845  -5.975  27.433  0.00  0.00     0.062 A 
ATOM      5  S1  INB d   0      -3.844  -7.127  28.258  0.00  0.00    -0.067 SA
ATOM      6  C6  INB d   0      -1.583  -5.538  28.014  0.00  0.00     0.179 C 
ATOM      7  O2  INB d   0      -1.141  -5.960  29.081  0.00  0.00    -0.291 OA
ATOM      8  C9  INB d   0      -2.604  -4.627  25.348  0.00  0.00     0.028 C 
ATOM      9  C12 INB d   0      -0.818  -4.477  27.218  0.00  0.00     0.070 C 
ATOM     10  C13 INB d   0      -1.099  -4.575  25.701  0.00  0.00     0.013 C 
ENDROOT
BRANCH   1  11
ATOM     11  N1  INB d   0      -6.165  -7.807  27.122  0.00  0.00    -0.320 N 
ATOM     12  H1  INB d   0      -6.518  -8.246  26.284  0.00  0.00     0.169 HD
ATOM     13  C7  INB d   0      -6.721  -8.184  28.287  0.00  0.00     0.235 C 
ATOM     14  O3  INB d   0      -7.023  -7.397  29.185  0.00  0.00    -0.272 OA
BRANCH  13  15
ATOM     15  C10 INB d   0      -6.970  -9.685  28.458  0.00  0.00     0.099 C 
BRANCH  15  16
ATOM     16  C11 INB d   0      -5.662 -10.484  28.645  0.00  0.00     0.107 C 
BRANCH  16  17
ATOM     17  C8  INB d   0      -5.150 -11.112  27.344  0.00  0.00     0.186 C 
ATOM     18  O6  INB d   0      -5.549 -12.270  27.095  0.00  0.00    -0.647 OA
ATOM     19  O4  INB d   0      -4.377 -10.447  26.619  0.00  0.00    -0.647 OA
ENDBRANCH  16  17
ENDBRANCH  15  16
ENDBRANCH  13  15
ENDBRANCH   1  11
BRANCH   2  20
ATOM     20  C5  INB d   0      -5.428  -6.010  24.743  0.00  0.00     0.297 C 
ATOM     21  O1  INB d   0      -5.959  -4.944  24.422  0.00  0.00    -0.259 OA
BRANCH  20  22
ATOM     22  O5  INB d   0      -5.502  -7.121  23.978  0.00  0.00    -0.298 OA
BRANCH  22  23
ATOM     23  C14 INB d   0      -4.436  -7.489  23.112  0.00  0.00     0.152 C 
ATOM     24  C15 INB d   0      -3.725  -8.746  23.630  0.00  0.00     0.035 C 
ENDBRANCH  22  23
ENDBRANCH  20  22
ENDBRANCH   2  20
TORSDOF 7
ENDMDL
MODEL 8
REMARK VINA RESULT:    -6.168      2.087      5.876
REMARK INTER + INTRA:          -9.890
REMARK INTER:                  -8.585
REMARK INTRA:                  -1.306
REMARK UNBOUND:                -1.199
REMARK  7 active torsions:
REMARK  status: ('A' for Active; 'I' for Inactive)
REMARK    1  A    between atoms: C1_1  and  N1_11 
REMARK    2  A    between atoms: C2_2  and  C5_20 
REMARK       I    between atoms: N1_11  and  C7_12 
REMARK    3  A    between atoms: C7_12  and  C10_15 
REMARK    4  A    between atoms: C10_15  and  C11_16 
REMARK    5  A    between atoms: C11_16  and  C8_17 
REMARK    6  A    between atoms: O5_22  and  C5_20 
REMARK    7  A    between atoms: O5_22  and  C14_23 
ROOT
ATOM      1  C1  INB d   0      -5.176 -10.217  27.657  0.00  0.00     0.094 A 
ATOM      2  C2  INB d   0      -4.673  -9.410  26.642  0.00  0.00     0.082 A 
ATOM      3  C3  INB d   0      -5.435  -8.199  26.470  0.00  0.00    -0.006 A 
ATOM      4  C4  INB d   0      -6.482  -8.121  27.349  0.00  0.00     0.062 A 
ATOM      5  S1  INB d   0      -6.554  -9.475  28.429  0.00  0.00    -0.067 SA
ATOM      6  C6  INB d   0      -7.453  -7.040  27.448  0.00  0.00     0.179 C 
ATOM      7  O2  INB d   0      -8.347  -7.003  28.294  0.00  0.00    -0.291 OA
ATOM      8  C9  INB d   0      -5.187  -7.077  25.489  0.00  0.00     0.028 C 
ATOM      9  C12 INB d   0      -7.320  -5.929  26.404  0.00  0.00     0.070 C 
ATOM     10  C13 INB d   0      -5.861  -5.755  25.924  0.00  0.00     0.013 C 
ENDROOT
BRANCH   1  11
ATOM     11  N1  INB d   0      -4.753 -11.423  28.110  0.00  0.00    -0.320 N 
ATOM     12  H1  INB d   0      -4.940 -12.220  27.520  0.00  0.00     0.169 HD
ATOM     13  C7  INB d   0      -3.934 -11.621  29.158  0.00  0.00     0.235 C 
ATOM     14  O3  INB d   0      -4.141 -11.161  30.282  0.00  0.00    -0.272 OA
BRANCH  13  15
ATOM     15  C10 INB d   0      -2.688 -12.468  28.887  0.00  0.00     0.099 C 
BRANCH  15  16
ATOM     16  C11 INB d   0      -2.458 -12.717  27.380  0.00  0.00     0.107 C 
BRANCH  16  17
ATOM     17  C8  INB d   0      -1.026 -12.403  26.932  0.00  0.00     0.186 C 
ATOM     18  O6  INB d   0      -0.215 -12.110  27.836  0.00  0.00    -0.647 OA
ATOM     19  O4  INB d   0      -0.754 -12.452  25.712  0.00  0.00    -0.647 OA
ENDBRANCH  16  17
ENDBRANCH  15  16
ENDBRANCH  13  15
ENDBRANCH   1  11
BRANCH   2  20
ATOM     20  C5  INB d   0      -3.478  -9.760  25.864  0.00  0.00     0.297 C 
ATOM     21  O1  INB d   0      -3.477 -10.515  24.890  0.00  0.00    -0.259 OA
BRANCH  20  22
ATOM     22  O5  INB d   0      -2.361  -9.150  26.315  0.00  0.00    -0.298 OA
BRANCH  22  23
ATOM     23  C14 INB d   0      -1.268  -8.884  25.445  0.00  0.00     0.152 C 
ATOM     24  C15 INB d   0      -1.419  -7.507  24.785  0.00  0.00     0.035 C 
ENDBRANCH  22  23
ENDBRANCH  20  22
ENDBRANCH   2  20
TORSDOF 7
ENDMDL
MODEL 9
REMARK VINA RESULT:    -6.120      2.177      6.317
REMARK INTER + INTRA:          -9.823
REMARK INTER:                  -8.472
REMARK INTRA:                  -1.351
REMARK UNBOUND:                -1.199
REMARK  7 active torsions:
REMARK  status: ('A' for Active; 'I' for Inactive)
REMARK    1  A    between atoms: C1_1  and  N1_11 
REMARK    2  A    between atoms: C2_2  and  C5_20 
REMARK       I    between atoms: N1_11  and  C7_12 
REMARK    3  A    between atoms: C7_12  and  C10_15 
REMARK    4  A    between atoms: C10_15  and  C11_16 
REMARK    5  A    between atoms: C11_16  and  C8_17 
REMARK    6  A    between atoms: O5_22  and  C5_20 
REMARK    7  A    between atoms: O5_22  and  C14_23 
ROOT
ATOM      1  C1  INB d   0      -2.999  -9.179  26.591  0.00  0.00     0.094 A 
ATOM      2  C2  INB d   0      -4.280  -8.647  26.688  0.00  0.00     0.082 A 
ATOM      3  C3  INB d   0      -4.454  -7.470  25.874  0.00  0.00    -0.006 A 
ATOM      4  C4  INB d   0      -3.314  -7.147  25.189  0.00  0.00     0.062 A 
ATOM      5  S1  INB d   0      -2.020  -8.266  25.471  0.00  0.00    -0.067 SA
ATOM      6  C6  INB d   0      -3.136  -6.021  24.282  0.00  0.00     0.179 C 
ATOM      7  O2  INB d   0      -2.098  -5.808  23.655  0.00  0.00    -0.291 OA
ATOM      8  C9  INB d   0      -5.700  -6.634  25.706  0.00  0.00     0.028 C 
ATOM      9  C12 INB d   0      -4.330  -5.072  24.159  0.00  0.00     0.070 C 
ATOM     10  C13 INB d   0      -5.674  -5.795  24.406  0.00  0.00     0.013 C 
ENDROOT
BRANCH   1  11
ATOM     11  N1  INB d   0      -2.447 -10.257  27.201  0.00  0.00    -0.320 N 
ATOM     12  H1  INB d   0      -2.171 -10.142  28.165  0.00  0.00     0.169 HD
ATOM     13  C7  INB d   0      -2.429 -11.509  26.709  0.00  0.00     0.235 C 
ATOM     14  O3  INB d   0      -1.997 -11.797  25.592  0.00  0.00    -0.272 OA
BRANCH  13  15
ATOM     15  C10 INB d   0      -2.990 -12.599  27.625  0.00  0.00     0.099 C 
BRANCH  15  16
ATOM     16  C11 INB d   0      -2.472 -12.478  29.075  0.00  0.00     0.107 C 
BRANCH  16  17
ATOM     17  C8  INB d   0      -3.552 -12.017  30.061  0.00  0.00     0.186 C 
ATOM     18  O6  INB d   0      -3.753 -10.785  30.125  0.00  0.00    -0.647 OA
ATOM     19  O4  INB d   0      -4.156 -12.879  30.737  0.00  0.00    -0.647 OA
ENDBRANCH  16  17
ENDBRANCH  15  16
ENDBRANCH  13  15
ENDBRANCH   1  11
BRANCH   2  20
ATOM     20  C5  INB d   0      -5.332  -9.251  27.514  0.00  0.00     0.297 C 
ATOM     21  O1  INB d   0      -5.740 -10.408  27.389  0.00  0.00    -0.259 OA
BRANCH  20  22
ATOM     22  O5  INB d   0      -5.809  -8.408  28.456  0.00  0.00    -0.298 OA
BRANCH  22  23
ATOM     23  C14 INB d   0      -7.204  -8.158  28.579  0.00  0.00     0.152 C 
ATOM     24  C15 INB d   0      -7.463  -6.694  28.958  0.00  0.00     0.035 C 
ENDBRANCH  22  23
ENDBRANCH  20  22
ENDBRANCH   2  20
TORSDOF 7
ENDMDL
MODEL 10
REMARK VINA RESULT:    -6.061      1.967      3.240
REMARK INTER + INTRA:          -9.740
REMARK INTER:                  -8.286
REMARK INTRA:                  -1.454
REMARK UNBOUND:                -1.199
REMARK  7 active torsions:
REMARK  status: ('A' for Active; 'I' for Inactive)
REMARK    1  A    between atoms: C1_1  and  N1_11 
REMARK    2  A    between atoms: C2_2  and  C5_20 
REMARK       I    between atoms: N1_11  and  C7_12 
REMARK    3  A    between atoms: C7_12  and  C10_15 
REMARK    4  A    between atoms: C10_15  and  C11_16 
REMARK    5  A    between atoms: C11_16  and  C8_17 
REMARK    6  A    between atoms: O5_22  and  C5_20 
REMARK    7  A    between atoms: O5_22  and  C14_23 
ROOT
ATOM      1  C1  INB d   0      -4.231  -9.013  25.280  0.00  0.00     0.094 A 
ATOM      2  C2  INB d   0      -4.406  -9.545  26.552  0.00  0.00     0.082 A 
ATOM      3  C3  INB d   0      -3.459 -10.590  26.851  0.00  0.00    -0.006 A 
ATOM      4  C4  INB d   0      -2.600 -10.817  25.809  0.00  0.00     0.062 A 
ATOM      5  S1  INB d   0      -2.880  -9.760  24.464  0.00  0.00    -0.067 SA
ATOM      6  C6  INB d   0      -1.525 -11.800  25.769  0.00  0.00     0.179 C 
ATOM      7  O2  INB d   0      -0.753 -11.926  24.820  0.00  0.00    -0.291 OA
ATOM      8  C9  INB d   0      -3.325 -11.384  28.128  0.00  0.00     0.028 C 
ATOM      9  C12 INB d   0      -1.415 -12.713  26.992  0.00  0.00     0.070 C 
ATOM     10  C13 INB d   0      -1.925 -12.025  28.278  0.00  0.00     0.013 C 
ENDROOT
BRANCH   1  11
ATOM     11  N1  INB d   0      -4.917  -8.039  24.633  0.00  0.00    -0.320 N 
ATOM     12  H1  INB d   0      -5.849  -8.271  24.321  0.00  0.00     0.169 HD
ATOM     13  C7  INB d   0      -4.555  -6.746  24.557  0.00  0.00     0.235 C 
ATOM     14  O3  INB d   0      -3.452  -6.369  24.160  0.00  0.00    -0.272 OA
BRANCH  13  15
ATOM     15  C10 INB d   0      -5.606  -5.726  25.005  0.00  0.00     0.099 C 
BRANCH  15  16
ATOM     16  C11 INB d   0      -6.995  -6.364  25.221  0.00  0.00     0.107 C 
BRANCH  16  17
ATOM     17  C8  INB d   0      -7.547  -6.136  26.633  0.00  0.00     0.186 C 
ATOM     18  O6  INB d   0      -8.460  -6.906  27.002  0.00  0.00    -0.647 OA
ATOM     19  O4  INB d   0      -7.067  -5.209  27.323  0.00  0.00    -0.647 OA
ENDBRANCH  16  17
ENDBRANCH  15  16
ENDBRANCH  13  15
ENDBRANCH   1  11
BRANCH   2  20
ATOM     20  C5  INB d   0      -5.433  -9.061  27.483  0.00  0.00     0.297 C 
ATOM     21  O1  INB d   0      -6.431  -9.703  27.817  0.00  0.00    -0.259 OA
BRANCH  20  22
ATOM     22  O5  INB d   0      -5.165  -7.827  27.963  0.00  0.00    -0.298 OA
BRANCH  22  23
ATOM     23  C14 INB d   0      -3.929  -7.541  28.605  0.00  0.00     0.152 C 
ATOM     24  C15 INB d   0      -3.288  -6.279  28.014  0.00  0.00     0.035 C 
ENDBRANCH  22  23
ENDBRANCH  20  22
ENDBRANCH   2  20
TORSDOF 7
ENDMDL
