@<TRIPOS>MOLECULE
./may15.pdb
 21 22 0 0 0
SMALL
GASTEIGER

@<TRIPOS>ATOM
      1  C1       -49.8960  -15.6070   17.3120 C.ar    0  INB0        0.1821
      2  C2       -50.5940  -15.0480   16.2070 C.ar    0  INB0        0.2157
      3  C3       -52.0100  -15.1720   16.1170 C.ar    0  INB0        0.0408
      4  C4       -50.6170  -16.2670   18.3290 C.ar    0  INB0        0.0387
      5  C7       -52.7020  -15.8490   17.1480 C.ar    0  INB0        0.0121
      6  C8       -52.0130  -16.3900   18.2470 C.ar    0  INB0        0.0593
      7 Cl        -52.8820  -17.2070   19.4940 Cl      0  INB0       -0.0822
      8  O3       -49.8960  -14.3690   15.2420 O.3     0  INB0       -0.2851
      9  C5       -52.7810  -14.6070   14.9750 C.3     0  INB0        0.1418
     10  N2       -53.5230  -15.2820   14.1930 N.pl3   0  INB0       -0.2330
     11  C6       -53.0740  -15.6020   12.9020 C.ar    0  INB0        0.0614
     12  C9       -53.8090  -16.5290   12.1220 C.ar    0  INB0       -0.0070
     13  C11      -53.3850  -16.8450   10.8140 C.ar    0  INB0       -0.0033
     14  C14      -55.0570  -17.1980   12.6770 C.3     0  INB0        0.0324
     15  C13      -52.2370  -16.2410   10.2710 C.ar    0  INB0       -0.0045
     16  C12      -51.5060  -15.3080   11.0300 C.ar    0  INB0       -0.0206
     17  C10      -51.9280  -14.9880   12.3360 C.ar    0  INB0        0.0115
     18  C15      -50.2760  -14.6450   10.4450 C.3     0  INB0        0.0311
     19  N1       -48.4310  -15.5140   17.4440 N.pl3   0  INB0        0.0609
     20  O1       -47.8140  -16.4900   17.8580 O.2     0  INB0       -0.1260
     21  O2       -47.9080  -14.4370   17.1710 O.2     0  INB0       -0.1260
@<TRIPOS>BOND
     1    15    13   ar
     2    15    16   ar
     3    18    16    1
     4    13    12   ar
     5    16    17   ar
     6    12    14    1
     7    12    11   ar
     8    17    11   ar
     9    11    10    1
    10    10     9    1
    11     9     3    1
    12     8     2    1
    13     3     2   ar
    14     3     5   ar
    15     2     1   ar
    16     5     6   ar
    17    21    19    2
    18     1    19    1
    19     1     4   ar
    20    19    20    2
    21     6     4   ar
    22     6     7    1
