MODEL 1
REMARK VINA RESULT:    -7.771      0.000      0.000
REMARK INTER + INTRA:         -13.936
REMARK INTER:                 -11.406
REMARK INTRA:                  -2.530
REMARK UNBOUND:                -2.530
REMARK  8 active torsions:
REMARK  status: ('A' for Active; 'I' for Inactive)
REMARK    1  A    between atoms: C7_7  and  C12_12 
REMARK    2  A    between atoms: C8_8  and  O13_13 
REMARK    3  A    between atoms: C12_12  and  O14_14 
REMARK    4  A    between atoms: O13_13  and  C16_16 
REMARK    5  A    between atoms: O14_14  and  C17_17 
REMARK    6  A    between atoms: C16_16  and  C18_18 
REMARK    7  A    between atoms: C21_21  and  O23_23 
REMARK    8  A    between atoms: O23_23  and  C26_26 
ROOT
ATOM      1  C1  UNK d   1      -5.576  -7.975  26.164  0.00  0.00     0.093 A 
ATOM      2  C2  UNK d   1      -6.536  -7.177  26.829  0.00  0.00     0.048 A 
ATOM      3  O3  UNK d   1      -5.211  -9.215  26.636  0.00  0.00    -0.303 OA
ATOM      4  C4  UNK d   1      -4.973  -7.499  24.982  0.00  0.00     0.075 A 
ATOM      5  C5  UNK d   1      -7.157  -7.694  28.069  0.00  0.00     0.187 A 
ATOM      6  C6  UNK d   1      -6.886  -5.914  26.306  0.00  0.00     0.021 A 
ATOM      7  C7  UNK d   1      -5.778  -9.709  27.788  0.00  0.00     0.154 A 
ATOM      8  C8  UNK d   1      -5.309  -6.230  24.468  0.00  0.00     0.082 A 
ATOM      9  C9  UNK d   1      -6.704  -9.024  28.499  0.00  0.00     0.099 A 
ATOM     10  O10 UNK d   1      -7.998  -7.064  28.707  0.00  0.00    -0.287 OA
ATOM     11  C11 UNK d   1      -6.279  -5.445  25.125  0.00  0.00     0.038 A 
ENDROOT
BRANCH   8  12
ATOM     12  O13 UNK d   1      -4.730  -5.799  23.300  0.00  0.00    -0.275 OA
BRANCH  12  13
ATOM     13  C16 UNK d   1      -3.383  -5.854  23.148  0.00  0.00     0.303 C 
ATOM     14  O19 UNK d   1      -2.807  -6.742  22.517  0.00  0.00    -0.259 OA
BRANCH  13  15
ATOM     15  C18 UNK d   1      -2.682  -4.721  23.830  0.00  0.00     0.093 A 
ATOM     16  C21 UNK d   1      -1.735  -4.942  24.867  0.00  0.00     0.186 A 
ATOM     17  N24 UNK d   1      -1.086  -3.938  25.506  0.00  0.00    -0.236 NA
ATOM     18  C27 UNK d   1      -1.354  -2.668  25.146  0.00  0.00     0.119 A 
ATOM     19  C25 UNK d   1      -2.270  -2.334  24.136  0.00  0.00     0.020 A 
ATOM     20  C22 UNK d   1      -2.943  -3.376  23.470  0.00  0.00     0.023 A 
BRANCH  16  21
ATOM     21  O23 UNK d   1      -1.403  -6.209  25.283  0.00  0.00    -0.291 OA
BRANCH  21  22
ATOM     22  C26 UNK d   1      -1.922  -6.647  26.476  0.00  0.00     0.077 A 
ATOM     23  C28 UNK d   1      -2.733  -5.798  27.260  0.00  0.00     0.037 A 
ATOM     24  C30 UNK d   1      -3.268  -6.259  28.478  0.00  0.00     0.003 A 
ATOM     25  C32 UNK d   1      -2.999  -7.573  28.913  0.00  0.00     0.000 A 
ATOM     26  C31 UNK d   1      -2.195  -8.424  28.128  0.00  0.00     0.003 A 
ATOM     27  C29 UNK d   1      -1.661  -7.962  26.910  0.00  0.00     0.037 A 
ENDBRANCH  21  22
ENDBRANCH  16  21
ENDBRANCH  13  15
ENDBRANCH  12  13
ENDBRANCH   8  12
BRANCH   7  28
ATOM     28  C12 UNK d   1      -5.301 -11.051  28.194  0.00  0.00     0.317 C 
ATOM     29  O15 UNK d   1      -5.469 -12.056  27.501  0.00  0.00    -0.257 OA
BRANCH  28  30
ATOM     30  O14 UNK d   1      -4.672 -11.057  29.388  0.00  0.00    -0.316 OA
BRANCH  30  31
ATOM     31  C17 UNK d   1      -3.761 -12.099  29.701  0.00  0.00     0.175 C 
ATOM     32  C20 UNK d   1      -4.038 -12.602  31.119  0.00  0.00     0.034 C 
ENDBRANCH  30  31
ENDBRANCH  28  30
ENDBRANCH   7  28
TORSDOF 8
ENDMDL
MODEL 2
REMARK VINA RESULT:    -7.656      0.762      1.449
REMARK INTER + INTRA:         -13.767
REMARK INTER:                 -11.168
REMARK INTRA:                  -2.599
REMARK UNBOUND:                -2.530
REMARK  8 active torsions:
REMARK  status: ('A' for Active; 'I' for Inactive)
REMARK    1  A    between atoms: C7_7  and  C12_12 
REMARK    2  A    between atoms: C8_8  and  O13_13 
REMARK    3  A    between atoms: C12_12  and  O14_14 
REMARK    4  A    between atoms: O13_13  and  C16_16 
REMARK    5  A    between atoms: O14_14  and  C17_17 
REMARK    6  A    between atoms: C16_16  and  C18_18 
REMARK    7  A    between atoms: C21_21  and  O23_23 
REMARK    8  A    between atoms: O23_23  and  C26_26 
ROOT
ATOM      1  C1  UNK d   1      -5.540  -7.908  26.148  0.00  0.00     0.093 A 
ATOM      2  C2  UNK d   1      -6.578  -7.142  26.728  0.00  0.00     0.048 A 
ATOM      3  O3  UNK d   1      -5.128  -9.103  26.693  0.00  0.00    -0.303 OA
ATOM      4  C4  UNK d   1      -4.904  -7.447  24.978  0.00  0.00     0.075 A 
ATOM      5  C5  UNK d   1      -7.232  -7.643  27.957  0.00  0.00     0.187 A 
ATOM      6  C6  UNK d   1      -6.972  -5.925  26.131  0.00  0.00     0.021 A 
ATOM      7  C7  UNK d   1      -5.726  -9.582  27.837  0.00  0.00     0.154 A 
ATOM      8  C8  UNK d   1      -5.286  -6.224  24.391  0.00  0.00     0.082 A 
ATOM      9  C9  UNK d   1      -6.727  -8.924  28.469  0.00  0.00     0.099 A 
ATOM     10  O10 UNK d   1      -8.141  -7.039  28.524  0.00  0.00    -0.287 OA
ATOM     11  C11 UNK d   1      -6.333  -5.471  24.963  0.00  0.00     0.038 A 
ENDROOT
BRANCH   8  12
ATOM     12  O13 UNK d   1      -4.672  -5.807  23.235  0.00  0.00    -0.275 OA
BRANCH  12  13
ATOM     13  C16 UNK d   1      -3.321  -5.857  23.127  0.00  0.00     0.303 C 
ATOM     14  O19 UNK d   1      -2.719  -6.750  22.529  0.00  0.00    -0.259 OA
BRANCH  13  15
ATOM     15  C18 UNK d   1      -2.648  -4.709  23.814  0.00  0.00     0.093 A 
ATOM     16  C21 UNK d   1      -1.703  -4.909  24.856  0.00  0.00     0.186 A 
ATOM     17  N24 UNK d   1      -1.080  -3.893  25.499  0.00  0.00    -0.236 NA
ATOM     18  C27 UNK d   1      -1.372  -2.628  25.138  0.00  0.00     0.119 A 
ATOM     19  C25 UNK d   1      -2.290  -2.314  24.123  0.00  0.00     0.020 A 
ATOM     20  C22 UNK d   1      -2.936  -3.370  23.452  0.00  0.00     0.023 A 
BRANCH  16  21
ATOM     21  O23 UNK d   1      -1.346  -6.169  25.274  0.00  0.00    -0.291 OA
BRANCH  21  22
ATOM     22  C26 UNK d   1      -1.860  -6.617  26.465  0.00  0.00     0.077 A 
ATOM     23  C28 UNK d   1      -1.537  -7.905  26.946  0.00  0.00     0.037 A 
ATOM     24  C30 UNK d   1      -2.061  -8.352  28.174  0.00  0.00     0.003 A 
ATOM     25  C32 UNK d   1      -2.906  -7.512  28.927  0.00  0.00     0.000 A 
ATOM     26  C31 UNK d   1      -3.224  -6.224  28.452  0.00  0.00     0.003 A 
ATOM     27  C29 UNK d   1      -2.699  -5.777  27.224  0.00  0.00     0.037 A 
ENDBRANCH  21  22
ENDBRANCH  16  21
ENDBRANCH  13  15
ENDBRANCH  12  13
ENDBRANCH   8  12
BRANCH   7  28
ATOM     28  C12 UNK d   1      -5.194 -10.874  28.326  0.00  0.00     0.317 C 
ATOM     29  O15 UNK d   1      -5.041 -11.121  29.524  0.00  0.00    -0.257 OA
BRANCH  28  30
ATOM     30  O14 UNK d   1      -4.899 -11.742  27.335  0.00  0.00    -0.316 OA
BRANCH  30  31
ATOM     31  C17 UNK d   1      -3.593 -12.289  27.241  0.00  0.00     0.175 C 
ATOM     32  C20 UNK d   1      -2.793 -11.505  26.198  0.00  0.00     0.034 C 
ENDBRANCH  30  31
ENDBRANCH  28  30
ENDBRANCH   7  28
TORSDOF 8
ENDMDL
MODEL 3
REMARK VINA RESULT:    -7.593      2.246      6.552
REMARK INTER + INTRA:         -13.675
REMARK INTER:                 -10.935
REMARK INTRA:                  -2.740
REMARK UNBOUND:                -2.530
REMARK  8 active torsions:
REMARK  status: ('A' for Active; 'I' for Inactive)
REMARK    1  A    between atoms: C7_7  and  C12_12 
REMARK    2  A    between atoms: C8_8  and  O13_13 
REMARK    3  A    between atoms: C12_12  and  O14_14 
REMARK    4  A    between atoms: O13_13  and  C16_16 
REMARK    5  A    between atoms: O14_14  and  C17_17 
REMARK    6  A    between atoms: C16_16  and  C18_18 
REMARK    7  A    between atoms: C21_21  and  O23_23 
REMARK    8  A    between atoms: O23_23  and  C26_26 
ROOT
ATOM      1  C1  UNK d   1      -5.118  -8.336  26.309  0.00  0.00     0.093 A 
ATOM      2  C2  UNK d   1      -6.103  -7.798  27.170  0.00  0.00     0.048 A 
ATOM      3  O3  UNK d   1      -4.554  -7.591  25.297  0.00  0.00    -0.303 OA
ATOM      4  C4  UNK d   1      -4.692  -9.668  26.483  0.00  0.00     0.075 A 
ATOM      5  C5  UNK d   1      -6.538  -6.398  26.970  0.00  0.00     0.187 A 
ATOM      6  C6  UNK d   1      -6.649  -8.596  28.199  0.00  0.00     0.021 A 
ATOM      7  C7  UNK d   1      -4.949  -6.288  25.097  0.00  0.00     0.154 A 
ATOM      8  C8  UNK d   1      -5.248 -10.470  27.500  0.00  0.00     0.082 A 
ATOM      9  C9  UNK d   1      -5.885  -5.682  25.865  0.00  0.00     0.099 A 
ATOM     10  O10 UNK d   1      -7.388  -5.856  27.674  0.00  0.00    -0.287 OA
ATOM     11  C11 UNK d   1      -6.218  -9.925  28.367  0.00  0.00     0.038 A 
ENDROOT
BRANCH   8  12
ATOM     12  O13 UNK d   1      -4.798 -11.756  27.670  0.00  0.00    -0.275 OA
BRANCH  12  13
ATOM     13  C16 UNK d   1      -3.498 -11.985  27.983  0.00  0.00     0.303 C 
ATOM     14  O19 UNK d   1      -2.674 -12.429  27.181  0.00  0.00    -0.259 OA
BRANCH  13  15
ATOM     15  C18 UNK d   1      -3.180 -11.639  29.404  0.00  0.00     0.093 A 
ATOM     16  C21 UNK d   1      -2.239 -10.627  29.737  0.00  0.00     0.186 A 
ATOM     17  N24 UNK d   1      -1.928 -10.293  31.012  0.00  0.00    -0.236 NA
ATOM     18  C27 UNK d   1      -2.534 -10.955  32.017  0.00  0.00     0.119 A 
ATOM     19  C25 UNK d   1      -3.478 -11.972  31.804  0.00  0.00     0.020 A 
ATOM     20  C22 UNK d   1      -3.805 -12.318  30.479  0.00  0.00     0.023 A 
BRANCH  16  21
ATOM     21  O23 UNK d   1      -1.586  -9.902  28.768  0.00  0.00    -0.291 OA
BRANCH  21  22
ATOM     22  C26 UNK d   1      -1.994  -8.610  28.553  0.00  0.00     0.077 A 
ATOM     23  C28 UNK d   1      -2.953  -8.010  29.397  0.00  0.00     0.037 A 
ATOM     24  C30 UNK d   1      -3.358  -6.680  29.175  0.00  0.00     0.003 A 
ATOM     25  C32 UNK d   1      -2.801  -5.944  28.110  0.00  0.00     0.000 A 
ATOM     26  C31 UNK d   1      -1.838  -6.537  27.270  0.00  0.00     0.003 A 
ATOM     27  C29 UNK d   1      -1.434  -7.868  27.494  0.00  0.00     0.037 A 
ENDBRANCH  21  22
ENDBRANCH  16  21
ENDBRANCH  13  15
ENDBRANCH  12  13
ENDBRANCH   8  12
BRANCH   7  28
ATOM     28  C12 UNK d   1      -4.273  -5.595  23.978  0.00  0.00     0.317 C 
ATOM     29  O15 UNK d   1      -3.984  -4.397  24.012  0.00  0.00    -0.257 OA
BRANCH  28  30
ATOM     30  O14 UNK d   1      -4.009  -6.402  22.929  0.00  0.00    -0.316 OA
BRANCH  30  31
ATOM     31  C17 UNK d   1      -2.680  -6.520  22.445  0.00  0.00     0.175 C 
ATOM     32  C20 UNK d   1      -2.605  -5.939  21.031  0.00  0.00     0.034 C 
ENDBRANCH  30  31
ENDBRANCH  28  30
ENDBRANCH   7  28
TORSDOF 8
ENDMDL
MODEL 4
REMARK VINA RESULT:    -7.449      2.168      6.346
REMARK INTER + INTRA:         -13.463
REMARK INTER:                 -11.031
REMARK INTRA:                  -2.432
REMARK UNBOUND:                -2.530
REMARK  8 active torsions:
REMARK  status: ('A' for Active; 'I' for Inactive)
REMARK    1  A    between atoms: C7_7  and  C12_12 
REMARK    2  A    between atoms: C8_8  and  O13_13 
REMARK    3  A    between atoms: C12_12  and  O14_14 
REMARK    4  A    between atoms: O13_13  and  C16_16 
REMARK    5  A    between atoms: O14_14  and  C17_17 
REMARK    6  A    between atoms: C16_16  and  C18_18 
REMARK    7  A    between atoms: C21_21  and  O23_23 
REMARK    8  A    between atoms: O23_23  and  C26_26 
ROOT
ATOM      1  C1  UNK d   1      -5.355  -8.137  26.456  0.00  0.00     0.093 A 
ATOM      2  C2  UNK d   1      -6.502  -7.641  27.117  0.00  0.00     0.048 A 
ATOM      3  O3  UNK d   1      -4.731  -7.430  25.453  0.00  0.00    -0.303 OA
ATOM      4  C4  UNK d   1      -4.823  -9.389  26.828  0.00  0.00     0.075 A 
ATOM      5  C5  UNK d   1      -7.045  -6.325  26.712  0.00  0.00     0.187 A 
ATOM      6  C6  UNK d   1      -7.104  -8.397  28.146  0.00  0.00     0.021 A 
ATOM      7  C7  UNK d   1      -5.225  -6.205  25.064  0.00  0.00     0.154 A 
ATOM      8  C8  UNK d   1      -5.434 -10.153  27.843  0.00  0.00     0.082 A 
ATOM      9  C9  UNK d   1      -6.319  -5.643  25.632  0.00  0.00     0.099 A 
ATOM     10  O10 UNK d   1      -8.038  -5.823  27.235  0.00  0.00    -0.287 OA
ATOM     11  C11 UNK d   1      -6.568  -9.646  28.511  0.00  0.00     0.038 A 
ENDROOT
BRANCH   8  12
ATOM     12  O13 UNK d   1      -4.883 -11.356  28.208  0.00  0.00    -0.275 OA
BRANCH  12  13
ATOM     13  C16 UNK d   1      -3.822 -11.389  29.054  0.00  0.00     0.303 C 
ATOM     14  O19 UNK d   1      -3.926 -11.288  30.278  0.00  0.00    -0.259 OA
BRANCH  13  15
ATOM     15  C18 UNK d   1      -2.520 -11.561  28.335  0.00  0.00     0.093 A 
ATOM     16  C21 UNK d   1      -1.435 -10.664  28.527  0.00  0.00     0.186 A 
ATOM     17  N24 UNK d   1      -0.245 -10.790  27.890  0.00  0.00    -0.236 NA
ATOM     18  C27 UNK d   1      -0.084 -11.812  27.027  0.00  0.00     0.119 A 
ATOM     19  C25 UNK d   1      -1.088 -12.756  26.761  0.00  0.00     0.020 A 
ATOM     20  C22 UNK d   1      -2.323 -12.628  27.424  0.00  0.00     0.023 A 
BRANCH  16  21
ATOM     21  O23 UNK d   1      -1.520  -9.603  29.397  0.00  0.00    -0.291 OA
BRANCH  21  22
ATOM     22  C26 UNK d   1      -1.929  -8.394  28.892  0.00  0.00     0.077 A 
ATOM     23  C28 UNK d   1      -1.346  -7.872  27.718  0.00  0.00     0.037 A 
ATOM     24  C30 UNK d   1      -1.778  -6.635  27.203  0.00  0.00     0.003 A 
ATOM     25  C32 UNK d   1      -2.799  -5.918  27.858  0.00  0.00     0.000 A 
ATOM     26  C31 UNK d   1      -3.389  -6.440  29.027  0.00  0.00     0.003 A 
ATOM     27  C29 UNK d   1      -2.955  -7.678  29.541  0.00  0.00     0.037 A 
ENDBRANCH  21  22
ENDBRANCH  16  21
ENDBRANCH  13  15
ENDBRANCH  12  13
ENDBRANCH   8  12
BRANCH   7  28
ATOM     28  C12 UNK d   1      -4.471  -5.544  23.975  0.00  0.00     0.317 C 
ATOM     29  O15 UNK d   1      -4.166  -4.351  24.004  0.00  0.00    -0.257 OA
BRANCH  28  30
ATOM     30  O14 UNK d   1      -4.156  -6.376  22.960  0.00  0.00    -0.316 OA
BRANCH  30  31
ATOM     31  C17 UNK d   1      -2.829  -6.411  22.460  0.00  0.00     0.175 C 
ATOM     32  C20 UNK d   1      -2.798  -5.783  21.065  0.00  0.00     0.034 C 
ENDBRANCH  30  31
ENDBRANCH  28  30
ENDBRANCH   7  28
TORSDOF 8
ENDMDL
MODEL 5
REMARK VINA RESULT:    -7.271      2.605      5.353
REMARK INTER + INTRA:         -13.202
REMARK INTER:                 -10.587
REMARK INTRA:                  -2.615
REMARK UNBOUND:                -2.530
REMARK  8 active torsions:
REMARK  status: ('A' for Active; 'I' for Inactive)
REMARK    1  A    between atoms: C7_7  and  C12_12 
REMARK    2  A    between atoms: C8_8  and  O13_13 
REMARK    3  A    between atoms: C12_12  and  O14_14 
REMARK    4  A    between atoms: O13_13  and  C16_16 
REMARK    5  A    between atoms: O14_14  and  C17_17 
REMARK    6  A    between atoms: C16_16  and  C18_18 
REMARK    7  A    between atoms: C21_21  and  O23_23 
REMARK    8  A    between atoms: O23_23  and  C26_26 
ROOT
ATOM      1  C1  UNK d   1      -5.091  -8.197  26.176  0.00  0.00     0.093 A 
ATOM      2  C2  UNK d   1      -5.110  -7.268  25.110  0.00  0.00     0.048 A 
ATOM      3  O3  UNK d   1      -5.789  -7.978  27.342  0.00  0.00    -0.303 OA
ATOM      4  C4  UNK d   1      -4.343  -9.386  26.052  0.00  0.00     0.075 A 
ATOM      5  C5  UNK d   1      -5.900  -6.026  25.261  0.00  0.00     0.187 A 
ATOM      6  C6  UNK d   1      -4.385  -7.537  23.929  0.00  0.00     0.021 A 
ATOM      7  C7  UNK d   1      -6.527  -6.827  27.498  0.00  0.00     0.154 A 
ATOM      8  C8  UNK d   1      -3.605  -9.648  24.880  0.00  0.00     0.082 A 
ATOM      9  C9  UNK d   1      -6.609  -5.875  26.539  0.00  0.00     0.099 A 
ATOM     10  O10 UNK d   1      -5.969  -5.168  24.383  0.00  0.00    -0.287 OA
ATOM     11  C11 UNK d   1      -3.640  -8.726  23.812  0.00  0.00     0.038 A 
ENDROOT
BRANCH   8  12
ATOM     12  O13 UNK d   1      -2.907 -10.824  24.769  0.00  0.00    -0.275 OA
BRANCH  12  13
ATOM     13  C16 UNK d   1      -1.684 -10.946  25.343  0.00  0.00     0.303 C 
ATOM     14  O19 UNK d   1      -0.628 -10.874  24.713  0.00  0.00    -0.259 OA
BRANCH  13  15
ATOM     15  C18 UNK d   1      -1.764 -11.178  26.820  0.00  0.00     0.093 A 
ATOM     16  C21 UNK d   1      -1.156 -10.292  27.751  0.00  0.00     0.186 A 
ATOM     17  N24 UNK d   1      -1.208 -10.475  29.092  0.00  0.00    -0.236 NA
ATOM     18  C27 UNK d   1      -1.862 -11.552  29.569  0.00  0.00     0.119 A 
ATOM     19  C25 UNK d   1      -2.497 -12.492  28.742  0.00  0.00     0.020 A 
ATOM     20  C22 UNK d   1      -2.447 -12.301  27.348  0.00  0.00     0.023 A 
BRANCH  16  21
ATOM     21  O23 UNK d   1      -0.480  -9.168  27.341  0.00  0.00    -0.291 OA
BRANCH  21  22
ATOM     22  C26 UNK d   1      -1.177  -7.988  27.282  0.00  0.00     0.077 A 
ATOM     23  C28 UNK d   1      -1.084  -7.157  26.145  0.00  0.00     0.037 A 
ATOM     24  C30 UNK d   1      -1.811  -5.952  26.088  0.00  0.00     0.003 A 
ATOM     25  C32 UNK d   1      -2.637  -5.577  27.167  0.00  0.00     0.000 A 
ATOM     26  C31 UNK d   1      -2.738  -6.409  28.300  0.00  0.00     0.003 A 
ATOM     27  C29 UNK d   1      -2.010  -7.614  28.355  0.00  0.00     0.037 A 
ENDBRANCH  21  22
ENDBRANCH  16  21
ENDBRANCH  13  15
ENDBRANCH  12  13
ENDBRANCH   8  12
BRANCH   7  28
ATOM     28  C12 UNK d   1      -7.230  -6.706  28.796  0.00  0.00     0.317 C 
ATOM     29  O15 UNK d   1      -8.436  -6.924  28.924  0.00  0.00    -0.257 OA
BRANCH  28  30
ATOM     30  O14 UNK d   1      -6.420  -6.337  29.811  0.00  0.00    -0.316 OA
BRANCH  30  31
ATOM     31  C17 UNK d   1      -6.912  -5.486  30.834  0.00  0.00     0.175 C 
ATOM     32  C20 UNK d   1      -5.906  -5.448  31.986  0.00  0.00     0.034 C 
ENDBRANCH  30  31
ENDBRANCH  28  30
ENDBRANCH   7  28
TORSDOF 8
ENDMDL
MODEL 6
REMARK VINA RESULT:    -7.211      1.949      3.574
REMARK INTER + INTRA:         -13.114
REMARK INTER:                 -13.167
REMARK INTRA:                   0.054
REMARK UNBOUND:                -2.530
REMARK  8 active torsions:
REMARK  status: ('A' for Active; 'I' for Inactive)
REMARK    1  A    between atoms: C7_7  and  C12_12 
REMARK    2  A    between atoms: C8_8  and  O13_13 
REMARK    3  A    between atoms: C12_12  and  O14_14 
REMARK    4  A    between atoms: O13_13  and  C16_16 
REMARK    5  A    between atoms: O14_14  and  C17_17 
REMARK    6  A    between atoms: C16_16  and  C18_18 
REMARK    7  A    between atoms: C21_21  and  O23_23 
REMARK    8  A    between atoms: O23_23  and  C26_26 
ROOT
ATOM      1  C1  UNK d   1      -5.458  -7.735  26.336  0.00  0.00     0.093 A 
ATOM      2  C2  UNK d   1      -6.580  -7.004  26.791  0.00  0.00     0.048 A 
ATOM      3  O3  UNK d   1      -5.096  -8.936  26.903  0.00  0.00    -0.303 OA
ATOM      4  C4  UNK d   1      -4.683  -7.232  25.271  0.00  0.00     0.075 A 
ATOM      5  C5  UNK d   1      -7.380  -7.549  27.910  0.00  0.00     0.187 A 
ATOM      6  C6  UNK d   1      -6.919  -5.780  26.175  0.00  0.00     0.021 A 
ATOM      7  C7  UNK d   1      -5.829  -9.455  27.945  0.00  0.00     0.154 A 
ATOM      8  C8  UNK d   1      -5.011  -6.001  24.667  0.00  0.00     0.082 A 
ATOM      9  C9  UNK d   1      -6.918  -8.833  28.455  0.00  0.00     0.099 A 
ATOM     10  O10 UNK d   1      -8.369  -6.977  28.364  0.00  0.00    -0.287 OA
ATOM     11  C11 UNK d   1      -6.141  -5.284  25.112  0.00  0.00     0.038 A 
ENDROOT
BRANCH   8  12
ATOM     12  O13 UNK d   1      -4.260  -5.544  23.613  0.00  0.00    -0.275 OA
BRANCH  12  13
ATOM     13  C16 UNK d   1      -3.384  -6.374  22.991  0.00  0.00     0.303 C 
ATOM     14  O19 UNK d   1      -3.352  -7.591  23.179  0.00  0.00    -0.259 OA
BRANCH  13  15
ATOM     15  C18 UNK d   1      -2.467  -5.646  22.059  0.00  0.00     0.093 A 
ATOM     16  C21 UNK d   1      -1.574  -4.640  22.519  0.00  0.00     0.186 A 
ATOM     17  N24 UNK d   1      -0.734  -3.961  21.701  0.00  0.00    -0.236 NA
ATOM     18  C27 UNK d   1      -0.749  -4.248  20.384  0.00  0.00     0.119 A 
ATOM     19  C25 UNK d   1      -1.590  -5.221  19.821  0.00  0.00     0.020 A 
ATOM     20  C22 UNK d   1      -2.460  -5.928  20.671  0.00  0.00     0.023 A 
BRANCH  16  21
ATOM     21  O23 UNK d   1      -1.496  -4.298  23.848  0.00  0.00    -0.291 OA
BRANCH  21  22
ATOM     22  C26 UNK d   1      -1.720  -2.988  24.186  0.00  0.00     0.077 A 
ATOM     23  C28 UNK d   1      -0.758  -2.262  24.921  0.00  0.00     0.037 A 
ATOM     24  C30 UNK d   1      -0.992  -0.914  25.255  0.00  0.00     0.003 A 
ATOM     25  C32 UNK d   1      -2.187  -0.286  24.850  0.00  0.00     0.000 A 
ATOM     26  C31 UNK d   1      -3.146  -1.006  24.110  0.00  0.00     0.003 A 
ATOM     27  C29 UNK d   1      -2.910  -2.354  23.777  0.00  0.00     0.037 A 
ENDBRANCH  21  22
ENDBRANCH  16  21
ENDBRANCH  13  15
ENDBRANCH  12  13
ENDBRANCH   8  12
BRANCH   7  28
ATOM     28  C12 UNK d   1      -5.338 -10.750  28.471  0.00  0.00     0.317 C 
ATOM     29  O15 UNK d   1      -4.861 -10.872  29.601  0.00  0.00    -0.257 OA
BRANCH  28  30
ATOM     30  O14 UNK d   1      -5.466 -11.767  27.594  0.00  0.00    -0.316 OA
BRANCH  30  31
ATOM     31  C17 UNK d   1      -4.524 -11.919  26.545  0.00  0.00     0.175 C 
ATOM     32  C20 UNK d   1      -3.173 -12.331  27.136  0.00  0.00     0.034 C 
ENDBRANCH  30  31
ENDBRANCH  28  30
ENDBRANCH   7  28
TORSDOF 8
ENDMDL
MODEL 7
REMARK VINA RESULT:    -7.142      2.619      5.944
REMARK INTER + INTRA:         -13.013
REMARK INTER:                 -10.355
REMARK INTRA:                  -2.658
REMARK UNBOUND:                -2.530
REMARK  8 active torsions:
REMARK  status: ('A' for Active; 'I' for Inactive)
REMARK    1  A    between atoms: C7_7  and  C12_12 
REMARK    2  A    between atoms: C8_8  and  O13_13 
REMARK    3  A    between atoms: C12_12  and  O14_14 
REMARK    4  A    between atoms: O13_13  and  C16_16 
REMARK    5  A    between atoms: O14_14  and  C17_17 
REMARK    6  A    between atoms: C16_16  and  C18_18 
REMARK    7  A    between atoms: C21_21  and  O23_23 
REMARK    8  A    between atoms: O23_23  and  C26_26 
ROOT
ATOM      1  C1  UNK d   1      -4.852  -8.587  25.820  0.00  0.00     0.093 A 
ATOM      2  C2  UNK d   1      -4.478  -8.071  24.557  0.00  0.00     0.048 A 
ATOM      3  O3  UNK d   1      -5.764  -7.943  26.625  0.00  0.00    -0.303 OA
ATOM      4  C4  UNK d   1      -4.284  -9.794  26.276  0.00  0.00     0.075 A 
ATOM      5  C5  UNK d   1      -5.084  -6.802  24.097  0.00  0.00     0.187 A 
ATOM      6  C6  UNK d   1      -3.544  -8.769  23.761  0.00  0.00     0.021 A 
ATOM      7  C7  UNK d   1      -6.335  -6.761  26.212  0.00  0.00     0.154 A 
ATOM      8  C8  UNK d   1      -3.339 -10.483  25.489  0.00  0.00     0.082 A 
ATOM      9  C9  UNK d   1      -6.043  -6.184  25.022  0.00  0.00     0.099 A 
ATOM     10  O10 UNK d   1      -4.813  -6.287  23.014  0.00  0.00    -0.287 OA
ATOM     11  C11 UNK d   1      -2.981  -9.973  24.222  0.00  0.00     0.038 A 
ENDROOT
BRANCH   8  12
ATOM     12  O13 UNK d   1      -2.821 -11.671  25.939  0.00  0.00    -0.275 OA
BRANCH  12  13
ATOM     13  C16 UNK d   1      -1.740 -11.674  26.761  0.00  0.00     0.303 C 
ATOM     14  O19 UNK d   1      -0.582 -11.792  26.358  0.00  0.00    -0.259 OA
BRANCH  13  15
ATOM     15  C18 UNK d   1      -2.114 -11.519  28.202  0.00  0.00     0.093 A 
ATOM     16  C21 UNK d   1      -1.706 -10.392  28.965  0.00  0.00     0.186 A 
ATOM     17  N24 UNK d   1      -2.025 -10.223  30.271  0.00  0.00    -0.236 NA
ATOM     18  C27 UNK d   1      -2.761 -11.173  30.880  0.00  0.00     0.119 A 
ATOM     19  C25 UNK d   1      -3.218 -12.327  30.223  0.00  0.00     0.020 A 
ATOM     20  C22 UNK d   1      -2.890 -12.501  28.866  0.00  0.00     0.023 A 
BRANCH  16  21
ATOM     21  O23 UNK d   1      -0.960  -9.378  28.412  0.00  0.00    -0.291 OA
BRANCH  21  22
ATOM     22  C26 UNK d   1      -1.610  -8.218  28.073  0.00  0.00     0.077 A 
ATOM     23  C28 UNK d   1      -1.314  -7.558  26.861  0.00  0.00     0.037 A 
ATOM     24  C30 UNK d   1      -1.993  -6.373  26.517  0.00  0.00     0.003 A 
ATOM     25  C32 UNK d   1      -2.973  -5.847  27.382  0.00  0.00     0.000 A 
ATOM     26  C31 UNK d   1      -3.275  -6.508  28.589  0.00  0.00     0.003 A 
ATOM     27  C29 UNK d   1      -2.596  -7.693  28.932  0.00  0.00     0.037 A 
ENDBRANCH  21  22
ENDBRANCH  16  21
ENDBRANCH  13  15
ENDBRANCH  12  13
ENDBRANCH   8  12
BRANCH   7  28
ATOM     28  C12 UNK d   1      -7.297  -6.165  27.167  0.00  0.00     0.317 C 
ATOM     29  O15 UNK d   1      -8.500  -6.056  26.921  0.00  0.00    -0.257 OA
BRANCH  28  30
ATOM     30  O14 UNK d   1      -6.726  -5.759  28.320  0.00  0.00    -0.316 OA
BRANCH  30  31
ATOM     31  C17 UNK d   1      -7.020  -6.436  29.531  0.00  0.00     0.175 C 
ATOM     32  C20 UNK d   1      -6.794  -5.485  30.709  0.00  0.00     0.034 C 
ENDBRANCH  30  31
ENDBRANCH  28  30
ENDBRANCH   7  28
TORSDOF 8
ENDMDL
MODEL 8
REMARK VINA RESULT:    -7.092      2.433      4.216
REMARK INTER + INTRA:         -12.939
REMARK INTER:                 -11.720
REMARK INTRA:                  -1.218
REMARK UNBOUND:                -2.530
REMARK  8 active torsions:
REMARK  status: ('A' for Active; 'I' for Inactive)
REMARK    1  A    between atoms: C7_7  and  C12_12 
REMARK    2  A    between atoms: C8_8  and  O13_13 
REMARK    3  A    between atoms: C12_12  and  O14_14 
REMARK    4  A    between atoms: O13_13  and  C16_16 
REMARK    5  A    between atoms: O14_14  and  C17_17 
REMARK    6  A    between atoms: C16_16  and  C18_18 
REMARK    7  A    between atoms: C21_21  and  O23_23 
REMARK    8  A    between atoms: O23_23  and  C26_26 
ROOT
ATOM      1  C1  UNK d   1      -5.087  -7.790  26.193  0.00  0.00     0.093 A 
ATOM      2  C2  UNK d   1      -6.203  -7.005  26.565  0.00  0.00     0.048 A 
ATOM      3  O3  UNK d   1      -4.872  -9.043  26.722  0.00  0.00    -0.303 OA
ATOM      4  C4  UNK d   1      -4.164  -7.288  25.253  0.00  0.00     0.075 A 
ATOM      5  C5  UNK d   1      -7.161  -7.550  27.553  0.00  0.00     0.187 A 
ATOM      6  C6  UNK d   1      -6.388  -5.729  25.991  0.00  0.00     0.021 A 
ATOM      7  C7  UNK d   1      -5.752  -9.562  27.644  0.00  0.00     0.154 A 
ATOM      8  C8  UNK d   1      -4.339  -6.007  24.693  0.00  0.00     0.082 A 
ATOM      9  C9  UNK d   1      -6.850  -8.891  28.066  0.00  0.00     0.099 A 
ATOM     10  O10 UNK d   1      -8.155  -6.933  27.929  0.00  0.00    -0.287 OA
ATOM     11  C11 UNK d   1      -5.463  -5.234  25.053  0.00  0.00     0.038 A 
ENDROOT
BRANCH   8  12
ATOM     12  O13 UNK d   1      -3.443  -5.550  23.758  0.00  0.00    -0.275 OA
BRANCH  12  13
ATOM     13  C16 UNK d   1      -2.350  -4.848  24.150  0.00  0.00     0.303 C 
ATOM     14  O19 UNK d   1      -1.484  -5.302  24.901  0.00  0.00    -0.259 OA
BRANCH  13  15
ATOM     15  C18 UNK d   1      -2.316  -3.468  23.571  0.00  0.00     0.093 A 
ATOM     16  C21 UNK d   1      -1.355  -3.087  22.596  0.00  0.00     0.186 A 
ATOM     17  N24 UNK d   1      -1.296  -1.846  22.055  0.00  0.00    -0.236 NA
ATOM     18  C27 UNK d   1      -2.188  -0.924  22.465  0.00  0.00     0.119 A 
ATOM     19  C25 UNK d   1      -3.180  -1.189  23.423  0.00  0.00     0.020 A 
ATOM     20  C22 UNK d   1      -3.244  -2.479  23.983  0.00  0.00     0.023 A 
BRANCH  16  21
ATOM     21  O23 UNK d   1      -0.419  -3.975  22.122  0.00  0.00    -0.291 OA
BRANCH  21  22
ATOM     22  C26 UNK d   1      -0.512  -4.362  20.809  0.00  0.00     0.077 A 
ATOM     23  C28 UNK d   1       0.473  -3.975  19.875  0.00  0.00     0.037 A 
ATOM     24  C30 UNK d   1       0.374  -4.385  18.531  0.00  0.00     0.003 A 
ATOM     25  C32 UNK d   1      -0.708  -5.188  18.119  0.00  0.00     0.000 A 
ATOM     26  C31 UNK d   1      -1.689  -5.582  19.050  0.00  0.00     0.003 A 
ATOM     27  C29 UNK d   1      -1.589  -5.171  20.394  0.00  0.00     0.037 A 
ENDBRANCH  21  22
ENDBRANCH  16  21
ENDBRANCH  13  15
ENDBRANCH  12  13
ENDBRANCH   8  12
BRANCH   7  28
ATOM     28  C12 UNK d   1      -5.411 -10.915  28.141  0.00  0.00     0.317 C 
ATOM     29  O15 UNK d   1      -5.711 -11.943  27.532  0.00  0.00    -0.257 OA
BRANCH  28  30
ATOM     30  O14 UNK d   1      -4.746 -10.902  29.314  0.00  0.00    -0.316 OA
BRANCH  30  31
ATOM     31  C17 UNK d   1      -3.902 -11.989  29.660  0.00  0.00     0.175 C 
ATOM     32  C20 UNK d   1      -3.992 -12.238  31.167  0.00  0.00     0.034 C 
ENDBRANCH  30  31
ENDBRANCH  28  30
ENDBRANCH   7  28
TORSDOF 8
ENDMDL
MODEL 9
REMARK VINA RESULT:    -6.995      1.760      3.423
REMARK INTER + INTRA:         -12.797
REMARK INTER:                 -10.182
REMARK INTRA:                  -2.615
REMARK UNBOUND:                -2.530
REMARK  8 active torsions:
REMARK  status: ('A' for Active; 'I' for Inactive)
REMARK    1  A    between atoms: C7_7  and  C12_12 
REMARK    2  A    between atoms: C8_8  and  O13_13 
REMARK    3  A    between atoms: C12_12  and  O14_14 
REMARK    4  A    between atoms: O13_13  and  C16_16 
REMARK    5  A    between atoms: O14_14  and  C17_17 
REMARK    6  A    between atoms: C16_16  and  C18_18 
REMARK    7  A    between atoms: C21_21  and  O23_23 
REMARK    8  A    between atoms: O23_23  and  C26_26 
ROOT
ATOM      1  C1  UNK d   1      -2.997  -8.251  26.790  0.00  0.00     0.093 A 
ATOM      2  C2  UNK d   1      -3.877  -7.506  27.608  0.00  0.00     0.048 A 
ATOM      3  O3  UNK d   1      -3.199  -9.589  26.537  0.00  0.00    -0.303 OA
ATOM      4  C4  UNK d   1      -1.880  -7.617  26.209  0.00  0.00     0.075 A 
ATOM      5  C5  UNK d   1      -5.044  -8.189  28.209  0.00  0.00     0.187 A 
ATOM      6  C6  UNK d   1      -3.635  -6.133  27.834  0.00  0.00     0.021 A 
ATOM      7  C7  UNK d   1      -4.278 -10.240  27.090  0.00  0.00     0.154 A 
ATOM      8  C8  UNK d   1      -1.627  -6.251  26.449  0.00  0.00     0.082 A 
ATOM      9  C9  UNK d   1      -5.178  -9.617  27.888  0.00  0.00     0.099 A 
ATOM     10  O10 UNK d   1      -5.856  -7.614  28.931  0.00  0.00    -0.287 OA
ATOM     11  C11 UNK d   1      -2.518  -5.507  27.252  0.00  0.00     0.038 A 
ENDROOT
BRANCH   8  12
ATOM     12  O13 UNK d   1      -0.550  -5.648  25.850  0.00  0.00    -0.275 OA
BRANCH  12  13
ATOM     13  C16 UNK d   1      -0.641  -5.207  24.570  0.00  0.00     0.303 C 
ATOM     14  O19 UNK d   1      -0.217  -5.840  23.602  0.00  0.00    -0.259 OA
BRANCH  13  15
ATOM     15  C18 UNK d   1      -1.311  -3.872  24.469  0.00  0.00     0.093 A 
ATOM     16  C21 UNK d   1      -2.439  -3.661  23.631  0.00  0.00     0.186 A 
ATOM     17  N24 UNK d   1      -3.066  -2.466  23.515  0.00  0.00    -0.236 NA
ATOM     18  C27 UNK d   1      -2.594  -1.422  24.224  0.00  0.00     0.119 A 
ATOM     19  C25 UNK d   1      -1.487  -1.516  25.082  0.00  0.00     0.020 A 
ATOM     20  C22 UNK d   1      -0.837  -2.758  25.205  0.00  0.00     0.023 A 
BRANCH  16  21
ATOM     21  O23 UNK d   1      -2.983  -4.679  22.884  0.00  0.00    -0.291 OA
BRANCH  21  22
ATOM     22  C26 UNK d   1      -3.935  -5.469  23.477  0.00  0.00     0.077 A 
ATOM     23  C28 UNK d   1      -4.003  -6.849  23.189  0.00  0.00     0.037 A 
ATOM     24  C30 UNK d   1      -4.977  -7.654  23.810  0.00  0.00     0.003 A 
ATOM     25  C32 UNK d   1      -5.885  -7.082  24.723  0.00  0.00     0.000 A 
ATOM     26  C31 UNK d   1      -5.816  -5.706  25.017  0.00  0.00     0.003 A 
ATOM     27  C29 UNK d   1      -4.840  -4.902  24.397  0.00  0.00     0.037 A 
ENDBRANCH  21  22
ENDBRANCH  16  21
ENDBRANCH  13  15
ENDBRANCH  12  13
ENDBRANCH   8  12
BRANCH   7  28
ATOM     28  C12 UNK d   1      -4.386 -11.676  26.747  0.00  0.00     0.317 C 
ATOM     29  O15 UNK d   1      -5.444 -12.303  26.824  0.00  0.00    -0.257 OA
BRANCH  28  30
ATOM     30  O14 UNK d   1      -3.217 -12.220  26.346  0.00  0.00    -0.316 OA
BRANCH  30  31
ATOM     31  C17 UNK d   1      -2.258 -12.624  27.310  0.00  0.00     0.175 C 
ATOM     32  C20 UNK d   1      -0.858 -12.255  26.815  0.00  0.00     0.034 C 
ENDBRANCH  30  31
ENDBRANCH  28  30
ENDBRANCH   7  28
TORSDOF 8
ENDMDL
MODEL 10
REMARK VINA RESULT:    -6.872      1.753      3.274
REMARK INTER + INTRA:         -12.617
REMARK INTER:                 -10.012
REMARK INTRA:                  -2.605
REMARK UNBOUND:                -2.530
REMARK  8 active torsions:
REMARK  status: ('A' for Active; 'I' for Inactive)
REMARK    1  A    between atoms: C7_7  and  C12_12 
REMARK    2  A    between atoms: C8_8  and  O13_13 
REMARK    3  A    between atoms: C12_12  and  O14_14 
REMARK    4  A    between atoms: O13_13  and  C16_16 
REMARK    5  A    between atoms: O14_14  and  C17_17 
REMARK    6  A    between atoms: C16_16  and  C18_18 
REMARK    7  A    between atoms: C21_21  and  O23_23 
REMARK    8  A    between atoms: O23_23  and  C26_26 
ROOT
ATOM      1  C1  UNK d   1      -5.160  -7.173  25.500  0.00  0.00     0.093 A 
ATOM      2  C2  UNK d   1      -4.524  -8.435  25.547  0.00  0.00     0.048 A 
ATOM      3  O3  UNK d   1      -6.052  -6.774  26.469  0.00  0.00    -0.303 OA
ATOM      4  C4  UNK d   1      -4.879  -6.290  24.438  0.00  0.00     0.075 A 
ATOM      5  C5  UNK d   1      -4.833  -9.348  26.670  0.00  0.00     0.187 A 
ATOM      6  C6  UNK d   1      -3.610  -8.800  24.535  0.00  0.00     0.021 A 
ATOM      7  C7  UNK d   1      -6.351  -7.612  27.519  0.00  0.00     0.154 A 
ATOM      8  C8  UNK d   1      -3.980  -6.661  23.418  0.00  0.00     0.082 A 
ATOM      9  C9  UNK d   1      -5.798  -8.840  27.654  0.00  0.00     0.099 A 
ATOM     10  O10 UNK d   1      -4.323 -10.461  26.785  0.00  0.00    -0.287 OA
ATOM     11  C11 UNK d   1      -3.334  -7.914  23.477  0.00  0.00     0.038 A 
ENDROOT
BRANCH   8  12
ATOM     12  O13 UNK d   1      -3.699  -5.774  22.408  0.00  0.00    -0.275 OA
BRANCH  12  13
ATOM     13  C16 UNK d   1      -2.446  -5.271  22.273  0.00  0.00     0.303 C 
ATOM     14  O19 UNK d   1      -1.595  -5.760  21.529  0.00  0.00    -0.259 OA
BRANCH  13  15
ATOM     15  C18 UNK d   1      -2.218  -4.063  23.127  0.00  0.00     0.093 A 
ATOM     16  C21 UNK d   1      -1.417  -4.115  24.300  0.00  0.00     0.186 A 
ATOM     17  N24 UNK d   1      -1.193  -3.041  25.095  0.00  0.00    -0.236 NA
ATOM     18  C27 UNK d   1      -1.762  -1.865  24.763  0.00  0.00     0.119 A 
ATOM     19  C25 UNK d   1      -2.571  -1.700  23.627  0.00  0.00     0.020 A 
ATOM     20  C22 UNK d   1      -2.801  -2.814  22.799  0.00  0.00     0.023 A 
BRANCH  16  21
ATOM     21  O23 UNK d   1      -0.797  -5.275  24.700  0.00  0.00    -0.291 OA
BRANCH  21  22
ATOM     22  C26 UNK d   1      -1.270  -5.897  25.827  0.00  0.00     0.077 A 
ATOM     23  C28 UNK d   1      -0.796  -7.175  26.194  0.00  0.00     0.037 A 
ATOM     24  C30 UNK d   1      -1.280  -7.802  27.358  0.00  0.00     0.003 A 
ATOM     25  C32 UNK d   1      -2.237  -7.151  28.162  0.00  0.00     0.000 A 
ATOM     26  C31 UNK d   1      -2.708  -5.872  27.801  0.00  0.00     0.003 A 
ATOM     27  C29 UNK d   1      -2.223  -5.246  26.637  0.00  0.00     0.037 A 
ENDBRANCH  21  22
ENDBRANCH  16  21
ENDBRANCH  13  15
ENDBRANCH  12  13
ENDBRANCH   8  12
BRANCH   7  28
ATOM     28  C12 UNK d   1      -7.326  -7.071  28.493  0.00  0.00     0.317 C 
ATOM     29  O15 UNK d   1      -8.523  -6.937  28.235  0.00  0.00    -0.257 OA
BRANCH  28  30
ATOM     30  O14 UNK d   1      -6.772  -6.744  29.679  0.00  0.00    -0.316 OA
BRANCH  30  31
ATOM     31  C17 UNK d   1      -6.999  -5.458  30.235  0.00  0.00     0.175 C 
ATOM     32  C20 UNK d   1      -6.530  -5.448  31.692  0.00  0.00     0.034 C 
ENDBRANCH  30  31
ENDBRANCH  28  30
ENDBRANCH   7  28
TORSDOF 8
ENDMDL
