@<TRIPOS>MOLECULE
./may12.pdb
 27 28 0 0 0
SMALL
GASTEIGER

@<TRIPOS>ATOM
      1  C2       -50.4800  -14.5890   15.8340 C.2     0  INB0        0.2856
      2  N3       -50.6120  -15.4780   14.8350 N.am    0  INB0       -0.2028
      3  O4       -49.8910  -13.5150   15.7160 O.2     0  INB0       -0.2693
      4  H2       -51.0110  -16.3900   15.0150 H       0  INB0        0.1774
      5  C8       -51.0950  -14.9720   17.1820 C.3     0  INB0        0.2911
      6  O3       -50.3430  -16.0360   17.7530 O.3     0  INB0       -0.4639
      7  C3       -49.6490  -15.8040   18.9210 C.ar    0  INB0        0.1615
      8  C1       -48.2530  -15.5540   18.8370 C.ar    0  INB0        0.1763
      9  C4       -47.5100  -15.3520   20.0230 C.ar    0  INB0        0.0229
     10  C10      -48.1360  -15.3860   21.2840 C.ar    0  INB0       -0.0203
     11  C11      -49.5190  -15.6310   21.3660 C.ar    0  INB0       -0.0011
     12  C9       -50.2690  -15.8410   20.1940 C.ar    0  INB0        0.0383
     13  N1       -47.5560  -15.4950   17.5360 N.pl3   0  INB0        0.0607
     14  O1       -46.9420  -14.4750   17.2390 O.2     0  INB0       -0.1260
     15  O2       -47.6070  -16.4890   16.8180 O.2     0  INB0       -0.1260
     16  C14      -47.3230  -15.1680   22.5460 C.3     0  INB0        0.0264
     17  C15      -46.4920  -13.8810   22.4840 C.3     0  INB0        0.0050
     18  N2       -50.2600  -15.2400   13.5550 N.2     0  INB0       -0.1774
     19  C7       -51.1890  -15.3710   12.6780 C.2     0  INB0        0.1206
     20  C5       -51.0650  -14.8470   11.3020 C.ar    0  INB0        0.0544
     21  C6       -50.4710  -13.5810   11.0590 C.ar    0  INB0        0.1351
     22  C13      -50.3580  -13.0920    9.7410 C.ar    0  INB0        0.0367
     23  C17      -50.8310  -13.8520    8.6570 C.ar    0  INB0        0.0031
     24  C16      -51.4230  -15.1070    8.8870 C.ar    0  INB0        0.0003
     25  C12      -51.5380  -15.6010   10.2000 C.ar    0  INB0        0.0046
     26  O5       -49.9940  -12.8050   12.0800 O.3     0  INB0       -0.5055
     27  H8       -49.6430  -11.9780   11.7880 H       0  INB0        0.2922
@<TRIPOS>BOND
     1    23    24   ar
     2    23    22   ar
     3    24    25   ar
     4    22    21   ar
     5    25    20   ar
     6    21    20   ar
     7    21    26    1
     8    20    19    1
     9    27    26    1
    10    19    18    2
    11    18     2    1
    12     2     4    1
    13     2     1   am
    14     3     1    2
    15     1     5    1
    16    15    13    2
    17     5     6    1
    18    14    13    2
    19    13     8    1
    20     6     7    1
    21     8     7   ar
    22     8     9   ar
    23     7    12   ar
    24     9    10   ar
    25    12    11   ar
    26    10    11   ar
    27    10    16    1
    28    17    16    1
