REMARK  8 active torsions:
REMARK  status: ('A' for Active; 'I' for Inactive)
REMARK    1  A    between atoms: C7_7  and  C12_12 
REMARK    2  A    between atoms: C8_8  and  O13_13 
REMARK    3  A    between atoms: C12_12  and  O14_14 
REMARK    4  A    between atoms: O13_13  and  C16_16 
REMARK    5  A    between atoms: O14_14  and  C17_17 
REMARK    6  A    between atoms: C16_16  and  C18_18 
REMARK    7  A    between atoms: C21_21  and  O23_23 
REMARK    8  A    between atoms: O23_23  and  C26_26 
ROOT
ATOM      1  C1  UNK d   1       1.608   0.981  -0.465  0.00  0.00     0.093 A 
ATOM      2  C2  UNK d   1       2.179  -0.130  -1.128  0.00  0.00     0.048 A 
ATOM      3  O3  UNK d   1       2.385   1.945   0.137  0.00  0.00    -0.303 OA
ATOM      4  C4  UNK d   1       0.206   1.118  -0.415  0.00  0.00     0.075 A 
ATOM      5  C5  UNK d   1       3.653  -0.256  -1.169  0.00  0.00     0.187 A 
ATOM      6  C6  UNK d   1       1.344  -1.091  -1.738  0.00  0.00     0.021 A 
ATOM      7  C7  UNK d   1       3.757   1.841   0.109  0.00  0.00     0.154 A 
ATOM      8  C8  UNK d   1      -0.629   0.150  -1.009  0.00  0.00     0.082 A 
ATOM      9  C9  UNK d   1       4.401   0.816  -0.498  0.00  0.00     0.099 A 
ATOM     10  O10 UNK d   1       4.228  -1.190  -1.724  0.00  0.00    -0.287 OA
ATOM     11  C11 UNK d   1      -0.055  -0.948  -1.684  0.00  0.00     0.038 A 
ENDROOT
BRANCH   8  12
ATOM     12  O13 UNK d   1      -1.991   0.318  -0.973  0.00  0.00    -0.275 OA
BRANCH  12  13
ATOM     13  C16 UNK d   1      -2.750  -0.453  -0.154  0.00  0.00     0.303 C 
ATOM     14  O19 UNK d   1      -2.282  -1.308   0.600  0.00  0.00    -0.259 OA
BRANCH  13  15
ATOM     15  C18 UNK d   1      -4.211  -0.149  -0.271  0.00  0.00     0.093 A 
ATOM     16  C21 UNK d   1      -5.181  -0.813   0.528  0.00  0.00     0.186 A 
ATOM     17  N24 UNK d   1      -6.510  -0.563   0.444  0.00  0.00    -0.236 NA
ATOM     18  C27 UNK d   1      -6.936   0.356  -0.444  0.00  0.00     0.119 A 
ATOM     19  C25 UNK d   1      -6.067   1.071  -1.284  0.00  0.00     0.020 A 
ATOM     20  C22 UNK d   1      -4.686   0.814  -1.195  0.00  0.00     0.023 A 
BRANCH  16  21
ATOM     21  O23 UNK d   1      -4.823  -1.756   1.462  0.00  0.00    -0.291 OA
BRANCH  21  22
ATOM     22  C26 UNK d   1      -5.365  -3.011   1.344  0.00  0.00     0.077 A 
ATOM     23  C28 UNK d   1      -5.018  -3.843   0.258  0.00  0.00     0.037 A 
ATOM     24  C30 UNK d   1      -5.572  -5.133   0.150  0.00  0.00     0.003 A 
ATOM     25  C32 UNK d   1      -6.471  -5.597   1.131  0.00  0.00     0.000 A 
ATOM     26  C31 UNK d   1      -6.814  -4.771   2.220  0.00  0.00     0.003 A 
ATOM     27  C29 UNK d   1      -6.259  -3.481   2.327  0.00  0.00     0.037 A 
ENDBRANCH  21  22
ENDBRANCH  16  21
ENDBRANCH  13  15
ENDBRANCH  12  13
ENDBRANCH   8  12
BRANCH   7  28
ATOM     28  C12 UNK d   1       4.481   2.937   0.793  0.00  0.00     0.317 C 
ATOM     29  O15 UNK d   1       3.903   3.873   1.348  0.00  0.00    -0.257 OA
BRANCH  28  30
ATOM     30  O14 UNK d   1       5.823   2.804   0.745  0.00  0.00    -0.316 OA
BRANCH  30  31
ATOM     31  C17 UNK d   1       6.652   3.779   1.358  0.00  0.00     0.175 C 
ATOM     32  C20 UNK d   1       8.119   3.392   1.157  0.00  0.00     0.034 C 
ENDBRANCH  30  31
ENDBRANCH  28  30
ENDBRANCH   7  28
TORSDOF 8
