REMARK  10 active torsions:
REMARK  status: ('A' for Active; 'I' for Inactive)
REMARK    1  A    between atoms: N1_18  and  C1_1 
REMARK    2  A    between atoms: C1_1  and  C2_3 
REMARK    3  A    between atoms: C4_2  and  C9_28 
REMARK       I    between atoms: C2_3  and  N3_4 
REMARK    4  A    between atoms: N3_4  and  N2_7 
REMARK    5  A    between atoms: C14_8  and  C15_9 
REMARK    6  A    between atoms: C6_12  and  C5_15 
REMARK       I    between atoms: C3_19  and  N1_18 
REMARK    7  A    between atoms: C8_22  and  C3_19 
REMARK    8  A    between atoms: C7_31  and  N4_34 
REMARK    9  A    between atoms: N4_34  and  C20_35 
REMARK   10  A    between atoms: N4_34  and  C21_37 
ROOT
ATOM      1  C1  INB d   0     -51.087 -15.876  15.583  0.00  0.00     0.117 C 
ATOM      2  C4  INB d   0     -52.121 -16.420  16.289  0.00  0.00     0.022 C 
ENDROOT
BRANCH   1   3
ATOM      3  N1  INB d   0     -51.067 -15.796  14.181  0.00  0.00    -0.317 N 
ATOM      4  C3  INB d   0     -51.198 -14.719  13.381  0.00  0.00     0.258 C 
ATOM      5  O2  INB d   0     -51.277 -13.553  13.769  0.00  0.00    -0.267 OA
ATOM      6  H1  INB d   0     -50.996 -16.690  13.715  0.00  0.00     0.169 HD
BRANCH   4   7
ATOM      7  C8  INB d   0     -51.349 -15.037  11.920  0.00  0.00     0.056 A 
ATOM      8  C22 INB d   0     -50.631 -14.292  10.958  0.00  0.00     0.005 A 
ATOM      9  C27 INB d   0     -50.749 -14.592   9.587  0.00  0.00     0.000 A 
ATOM     10  C28 INB d   0     -51.582 -15.645   9.165  0.00  0.00     0.000 A 
ATOM     11  C26 INB d   0     -52.292 -16.402  10.115  0.00  0.00     0.000 A 
ATOM     12  C23 INB d   0     -52.175 -16.102  11.487  0.00  0.00     0.005 A 
ENDBRANCH   4   7
ENDBRANCH   1   3
BRANCH   1  13
ATOM     13  C2  INB d   0     -49.890 -15.293  16.199  0.00  0.00     0.289 C 
ATOM     14  O1  INB d   0     -49.542 -14.120  16.044  0.00  0.00    -0.264 OA
ATOM     15  N3  INB d   0     -49.161 -16.171  16.907  0.00  0.00    -0.241 N 
ATOM     16  H3  INB d   0     -49.427 -17.145  16.926  0.00  0.00     0.192 HD
BRANCH  15  17
ATOM     17  N2  INB d   0     -48.164 -15.836  17.752  0.00  0.00    -0.169 NA
ATOM     18  C14 INB d   0     -48.473 -15.824  19.000  0.00  0.00     0.120 C 
BRANCH  18  19
ATOM     19  C15 INB d   0     -47.515 -16.164  20.061  0.00  0.00     0.021 A 
ATOM     20  C18 INB d   0     -46.474 -17.072  19.775  0.00  0.00     0.002 A 
ATOM     21  C11 INB d   0     -45.538 -17.423  20.768  0.00  0.00     0.006 A 
ATOM     22  C6  INB d   0     -45.627 -16.871  22.067  0.00  0.00     0.064 A 
ATOM     23  C10 INB d   0     -46.672 -15.963  22.351  0.00  0.00     0.006 A 
ATOM     24  C19 INB d   0     -47.608 -15.611  21.359  0.00  0.00     0.002 A 
BRANCH  22  25
ATOM     25  C5  INB d   0     -44.628 -17.247  23.128  0.00  0.00     0.211 C 
ATOM     26  O4  INB d   0     -43.478 -17.593  22.778  0.00  0.00    -0.644 OA
ATOM     27  O3  INB d   0     -44.977 -17.201  24.328  0.00  0.00    -0.644 OA
ENDBRANCH  22  25
ENDBRANCH  18  19
ENDBRANCH  15  17
ENDBRANCH   1  13
BRANCH   2  28
ATOM     28  C9  INB d   0     -52.193 -16.787  17.715  0.00  0.00     0.002 A 
ATOM     29  C17 INB d   0     -51.380 -17.800  18.263  0.00  0.00     0.002 A 
ATOM     30  C13 INB d   0     -51.506 -18.168  19.616  0.00  0.00     0.017 A 
ATOM     31  C7  INB d   0     -52.441 -17.526  20.468  0.00  0.00     0.056 A 
ATOM     32  C12 INB d   0     -53.228 -16.486  19.911  0.00  0.00     0.017 A 
ATOM     33  C16 INB d   0     -53.102 -16.120  18.557  0.00  0.00     0.002 A 
BRANCH  31  34
ATOM     34  N4  INB d   0     -52.581 -17.901  21.773  0.00  0.00    -0.348 N 
BRANCH  34  35
ATOM     35  C20 INB d   0     -53.860 -18.287  22.374  0.00  0.00     0.102 C 
ATOM     36  C25 INB d   0     -54.509 -19.473  21.647  0.00  0.00     0.026 C 
ENDBRANCH  34  35
BRANCH  34  37
ATOM     37  C21 INB d   0     -51.474 -17.936  22.731  0.00  0.00     0.102 C 
ATOM     38  C24 INB d   0     -50.951 -16.530  23.062  0.00  0.00     0.026 C 
ENDBRANCH  34  37
ENDBRANCH  31  34
ENDBRANCH   2  28
TORSDOF 10
