REMARK  3 active torsions:
REMARK  status: ('A' for Active; 'I' for Inactive)
REMARK    1  A    between atoms: C1_1  and  N1_19 
REMARK    2  A    between atoms: C5_9  and  C3_3 
REMARK    3  A    between atoms: C6_11  and  N2_10 
ROOT
ATOM      1  C1  INB d   0     -49.896 -15.607  17.312  0.00  0.00     0.153 A 
ATOM      2  C2  INB d   0     -50.594 -15.048  16.207  0.00  0.00     0.154 A 
ATOM      3  C3  INB d   0     -52.010 -15.172  16.117  0.00  0.00     0.047 A 
ATOM      4  C4  INB d   0     -50.617 -16.267  18.329  0.00  0.00     0.037 A 
ATOM      5  C7  INB d   0     -52.702 -15.849  17.148  0.00  0.00     0.015 A 
ATOM      6  C8  INB d   0     -52.013 -16.390  18.247  0.00  0.00     0.060 A 
ATOM      7 Cl   INB d   0     -52.882 -17.207  19.494  0.00  0.00    -0.082 Cl
ATOM      8  O3  INB d   0     -49.896 -14.369  15.242  0.00  0.00    -0.188 OA
ENDROOT
BRANCH   3   9
ATOM      9  C5  INB d   0     -52.781 -14.607  14.975  0.00  0.00     0.101 C 
ATOM     10  N2  INB d   0     -53.523 -15.282  14.193  0.00  0.00    -0.244 NA
BRANCH  10  11
ATOM     11  C6  INB d   0     -53.074 -15.602  12.902  0.00  0.00     0.077 A 
ATOM     12  C9  INB d   0     -53.809 -16.529  12.122  0.00  0.00    -0.004 A 
ATOM     13  C11 INB d   0     -53.385 -16.845  10.814  0.00  0.00    -0.003 A 
ATOM     14  C14 INB d   0     -55.057 -17.198  12.677  0.00  0.00     0.033 C 
ATOM     15  C13 INB d   0     -52.237 -16.241  10.271  0.00  0.00    -0.004 A 
ATOM     16  C12 INB d   0     -51.506 -15.308  11.030  0.00  0.00    -0.020 A 
ATOM     17  C15 INB d   0     -50.276 -14.645  10.445  0.00  0.00     0.031 C 
ATOM     18  C10 INB d   0     -51.928 -14.988  12.336  0.00  0.00     0.015 A 
ENDBRANCH  10  11
ENDBRANCH   3   9
BRANCH   1  19
ATOM     19  N1  INB d   0     -48.431 -15.514  17.444  0.00  0.00    -0.112 N 
ATOM     20  O2  INB d   0     -47.908 -14.437  17.171  0.00  0.00    -0.532 OA
ATOM     21  O1  INB d   0     -47.814 -16.490  17.858  0.00  0.00    -0.532 OA
ENDBRANCH   1  19
TORSDOF 3
