MODEL 1
REMARK VINA RESULT:    -7.574      0.000      0.000
REMARK INTER + INTRA:         -10.066
REMARK INTER:                  -9.344
REMARK INTRA:                  -0.722
REMARK UNBOUND:                -0.722
REMARK  4 active torsions:
REMARK  status: ('A' for Active; 'I' for Inactive)
REMARK    1  A    between atoms: C1_1  and  N3_9 
REMARK    2  A    between atoms: C8_22  and  N2_4 
REMARK       I    between atoms: N3_9  and  C4_10 
REMARK    3  A    between atoms: C4_10  and  C5_13 
REMARK    4  A    between atoms: C7_19  and  C6_14 
ROOT
ATOM      1  C1  INB d   0      -3.331  -5.585  26.064  0.00  0.00     0.125 A 
ATOM      2  C2  INB d   0      -3.654  -4.854  24.853  0.00  0.00     0.291 A 
ATOM      3  N1  INB d   0      -1.653  -4.214  25.637  0.00  0.00    -0.171 NA
ATOM      4  N2  INB d   0      -2.599  -4.041  24.625  0.00  0.00    -0.231 N 
ATOM      5  C3  INB d   0      -2.135  -5.161  26.505  0.00  0.00     0.054 A 
ATOM      6  O1  INB d   0      -4.676  -4.942  24.172  0.00  0.00    -0.264 OA
ATOM      7  C9  INB d   0      -0.276  -4.206  25.153  0.00  0.00     0.119 C 
ATOM      8  C10 INB d   0      -1.369  -5.502  27.771  0.00  0.00     0.047 C 
ENDROOT
BRANCH   1   9
ATOM      9  N3  INB d   0      -4.231  -6.501  26.621  0.00  0.00    -0.317 N 
ATOM     10  H1  INB d   0      -4.682  -6.202  27.474  0.00  0.00     0.169 HD
ATOM     11  C4  INB d   0      -4.619  -7.680  26.107  0.00  0.00     0.258 C 
ATOM     12  O2  INB d   0      -4.324  -8.098  24.988  0.00  0.00    -0.267 OA
BRANCH  11  13
ATOM     13  C5  INB d   0      -5.522  -8.479  27.009  0.00  0.00     0.062 A 
ATOM     14  C6  INB d   0      -6.735  -7.959  27.564  0.00  0.00     0.069 A 
ATOM     15  C12 INB d   0      -7.455  -8.758  28.483  0.00  0.00     0.006 A 
ATOM     16  C16 INB d   0      -7.020 -10.049  28.831  0.00  0.00     0.000 A 
ATOM     17  C15 INB d   0      -5.845 -10.565  28.265  0.00  0.00     0.000 A 
ATOM     18  C11 INB d   0      -5.102  -9.782  27.363  0.00  0.00     0.005 A 
BRANCH  14  19
ATOM     19  C7  INB d   0      -7.316  -6.610  27.203  0.00  0.00     0.211 C 
ATOM     20  O4  INB d   0      -8.164  -6.557  26.284  0.00  0.00    -0.644 OA
ATOM     21  O3  INB d   0      -6.912  -5.580  27.789  0.00  0.00    -0.644 OA
ENDBRANCH  14  19
ENDBRANCH  11  13
ENDBRANCH   1   9
BRANCH   4  22
ATOM     22  C8  INB d   0      -2.533  -2.980  23.675  0.00  0.00     0.079 A 
ATOM     23  C14 INB d   0      -2.094  -3.225  22.353  0.00  0.00     0.019 A 
ATOM     24  C18 INB d   0      -2.019  -2.171  21.422  0.00  0.00     0.002 A 
ATOM     25  C19 INB d   0      -2.379  -0.866  21.805  0.00  0.00     0.000 A 
ATOM     26  C17 INB d   0      -2.812  -0.612  23.120  0.00  0.00     0.002 A 
ATOM     27  C13 INB d   0      -2.889  -1.664  24.052  0.00  0.00     0.019 A 
ENDBRANCH   4  22
TORSDOF 4
ENDMDL
MODEL 2
REMARK VINA RESULT:    -7.325      2.462      7.527
REMARK INTER + INTRA:          -9.760
REMARK INTER:                  -8.665
REMARK INTRA:                  -1.095
REMARK UNBOUND:                -0.722
REMARK  4 active torsions:
REMARK  status: ('A' for Active; 'I' for Inactive)
REMARK    1  A    between atoms: C1_1  and  N3_9 
REMARK    2  A    between atoms: C8_22  and  N2_4 
REMARK       I    between atoms: N3_9  and  C4_10 
REMARK    3  A    between atoms: C4_10  and  C5_13 
REMARK    4  A    between atoms: C7_19  and  C6_14 
ROOT
ATOM      1  C1  INB d   0      -3.395  -7.154  24.236  0.00  0.00     0.125 A 
ATOM      2  C2  INB d   0      -4.023  -6.386  25.295  0.00  0.00     0.291 A 
ATOM      3  N1  INB d   0      -4.420  -8.575  25.581  0.00  0.00    -0.171 NA
ATOM      4  N2  INB d   0      -4.624  -7.294  26.096  0.00  0.00    -0.231 N 
ATOM      5  C3  INB d   0      -3.670  -8.453  24.438  0.00  0.00     0.054 A 
ATOM      6  O1  INB d   0      -4.022  -5.163  25.440  0.00  0.00    -0.264 OA
ATOM      7  C9  INB d   0      -4.150  -9.578  26.606  0.00  0.00     0.119 C 
ATOM      8  C10 INB d   0      -3.359  -9.674  23.590  0.00  0.00     0.047 C 
ENDROOT
BRANCH   1   9
ATOM      9  N3  INB d   0      -2.706  -6.524  23.193  0.00  0.00    -0.317 N 
ATOM     10  H1  INB d   0      -1.699  -6.554  23.256  0.00  0.00     0.169 HD
ATOM     11  C4  INB d   0      -3.231  -5.966  22.089  0.00  0.00     0.258 C 
ATOM     12  O2  INB d   0      -4.415  -6.023  21.759  0.00  0.00    -0.267 OA
BRANCH  11  13
ATOM     13  C5  INB d   0      -2.223  -5.275  21.208  0.00  0.00     0.062 A 
ATOM     14  C6  INB d   0      -1.614  -4.024  21.544  0.00  0.00     0.069 A 
ATOM     15  C12 INB d   0      -0.760  -3.411  20.598  0.00  0.00     0.006 A 
ATOM     16  C16 INB d   0      -0.481  -4.019  19.361  0.00  0.00     0.000 A 
ATOM     17  C15 INB d   0      -1.059  -5.258  19.045  0.00  0.00     0.000 A 
ATOM     18  C11 INB d   0      -1.926  -5.877  19.962  0.00  0.00     0.005 A 
BRANCH  14  19
ATOM     19  C7  INB d   0      -1.802  -3.326  22.873  0.00  0.00     0.211 C 
ATOM     20  O4  INB d   0      -1.220  -3.795  23.877  0.00  0.00    -0.644 OA
ATOM     21  O3  INB d   0      -2.563  -2.335  22.954  0.00  0.00    -0.644 OA
ENDBRANCH  14  19
ENDBRANCH  11  13
ENDBRANCH   1   9
BRANCH   4  22
ATOM     22  C8  INB d   0      -5.543  -7.020  27.151  0.00  0.00     0.079 A 
ATOM     23  C14 INB d   0      -6.936  -7.016  26.908  0.00  0.00     0.019 A 
ATOM     24  C18 INB d   0      -7.839  -6.733  27.950  0.00  0.00     0.002 A 
ATOM     25  C19 INB d   0      -7.358  -6.450  29.242  0.00  0.00     0.000 A 
ATOM     26  C17 INB d   0      -5.972  -6.448  29.492  0.00  0.00     0.002 A 
ATOM     27  C13 INB d   0      -5.068  -6.731  28.451  0.00  0.00     0.019 A 
ENDBRANCH   4  22
TORSDOF 4
ENDMDL
MODEL 3
REMARK VINA RESULT:    -7.150      3.453      5.681
REMARK INTER + INTRA:          -9.544
REMARK INTER:                  -8.552
REMARK INTRA:                  -0.991
REMARK UNBOUND:                -0.722
REMARK  4 active torsions:
REMARK  status: ('A' for Active; 'I' for Inactive)
REMARK    1  A    between atoms: C1_1  and  N3_9 
REMARK    2  A    between atoms: C8_22  and  N2_4 
REMARK       I    between atoms: N3_9  and  C4_10 
REMARK    3  A    between atoms: C4_10  and  C5_13 
REMARK    4  A    between atoms: C7_19  and  C6_14 
ROOT
ATOM      1  C1  INB d   0      -4.310  -8.936  27.655  0.00  0.00     0.125 A 
ATOM      2  C2  INB d   0      -3.461  -8.217  26.725  0.00  0.00     0.291 A 
ATOM      3  N1  INB d   0      -5.576  -7.491  26.564  0.00  0.00    -0.171 NA
ATOM      4  N2  INB d   0      -4.272  -7.340  26.093  0.00  0.00    -0.231 N 
ATOM      5  C3  INB d   0      -5.567  -8.481  27.515  0.00  0.00     0.054 A 
ATOM      6  O1  INB d   0      -2.253  -8.370  26.537  0.00  0.00    -0.264 OA
ATOM      7  C9  INB d   0      -6.281  -6.226  26.742  0.00  0.00     0.119 C 
ATOM      8  C10 INB d   0      -6.865  -8.945  28.153  0.00  0.00     0.047 C 
ENDROOT
BRANCH   1   9
ATOM      9  N3  INB d   0      -3.802  -9.963  28.459  0.00  0.00    -0.317 N 
ATOM     10  H1  INB d   0      -3.374  -9.666  29.324  0.00  0.00     0.169 HD
ATOM     11  C4  INB d   0      -3.897 -11.287  28.249  0.00  0.00     0.258 C 
ATOM     12  O2  INB d   0      -4.558 -11.818  27.358  0.00  0.00    -0.267 OA
BRANCH  11  13
ATOM     13  C5  INB d   0      -3.149 -12.125  29.251  0.00  0.00     0.062 A 
ATOM     14  C6  INB d   0      -1.845 -12.664  29.006  0.00  0.00     0.069 A 
ATOM     15  C12 INB d   0      -1.276 -13.526  29.973  0.00  0.00     0.006 A 
ATOM     16  C16 INB d   0      -1.951 -13.833  31.169  0.00  0.00     0.000 A 
ATOM     17  C15 INB d   0      -3.217 -13.282  31.417  0.00  0.00     0.000 A 
ATOM     18  C11 INB d   0      -3.811 -12.438  30.462  0.00  0.00     0.005 A 
BRANCH  14  19
ATOM     19  C7  INB d   0      -1.016 -12.340  27.783  0.00  0.00     0.211 C 
ATOM     20  O4  INB d   0      -0.324 -11.298  27.794  0.00  0.00    -0.644 OA
ATOM     21  O3  INB d   0      -1.073 -13.085  26.777  0.00  0.00    -0.644 OA
ENDBRANCH  14  19
ENDBRANCH  11  13
ENDBRANCH   1   9
BRANCH   4  22
ATOM     22  C8  INB d   0      -3.948  -6.558  24.945  0.00  0.00     0.079 A 
ATOM     23  C14 INB d   0      -4.224  -7.041  23.645  0.00  0.00     0.019 A 
ATOM     24  C18 INB d   0      -3.892  -6.270  22.515  0.00  0.00     0.002 A 
ATOM     25  C19 INB d   0      -3.280  -5.012  22.675  0.00  0.00     0.000 A 
ATOM     26  C17 INB d   0      -2.998  -4.526  23.965  0.00  0.00     0.002 A 
ATOM     27  C13 INB d   0      -3.331  -5.295  25.096  0.00  0.00     0.019 A 
ENDBRANCH   4  22
TORSDOF 4
ENDMDL
MODEL 4
REMARK VINA RESULT:    -7.138      2.662      3.664
REMARK INTER + INTRA:          -9.529
REMARK INTER:                  -8.649
REMARK INTRA:                  -0.879
REMARK UNBOUND:                -0.722
REMARK  4 active torsions:
REMARK  status: ('A' for Active; 'I' for Inactive)
REMARK    1  A    between atoms: C1_1  and  N3_9 
REMARK    2  A    between atoms: C8_22  and  N2_4 
REMARK       I    between atoms: N3_9  and  C4_10 
REMARK    3  A    between atoms: C4_10  and  C5_13 
REMARK    4  A    between atoms: C7_19  and  C6_14 
ROOT
ATOM      1  C1  INB d   0      -3.636  -7.419  25.390  0.00  0.00     0.125 A 
ATOM      2  C2  INB d   0      -2.528  -7.251  24.469  0.00  0.00     0.291 A 
ATOM      3  N1  INB d   0      -4.079  -5.671  24.114  0.00  0.00    -0.171 NA
ATOM      4  N2  INB d   0      -2.836  -6.169  23.721  0.00  0.00    -0.231 N 
ATOM      5  C3  INB d   0      -4.545  -6.464  25.134  0.00  0.00     0.054 A 
ATOM      6  O1  INB d   0      -1.517  -7.948  24.374  0.00  0.00    -0.264 OA
ATOM      7  C9  INB d   0      -4.137  -4.214  24.150  0.00  0.00     0.119 C 
ATOM      8  C10 INB d   0      -5.928  -6.231  25.715  0.00  0.00     0.047 C 
ENDROOT
BRANCH   1   9
ATOM      9  N3  INB d   0      -3.670  -8.482  26.300  0.00  0.00    -0.317 N 
ATOM     10  H1  INB d   0      -3.676  -8.220  27.275  0.00  0.00     0.169 HD
ATOM     11  C4  INB d   0      -3.781  -9.792  26.020  0.00  0.00     0.258 C 
ATOM     12  O2  INB d   0      -3.989 -10.264  24.903  0.00  0.00    -0.267 OA
BRANCH  11  13
ATOM     13  C5  INB d   0      -3.681 -10.690  27.224  0.00  0.00     0.062 A 
ATOM     14  C6  INB d   0      -4.585 -10.622  28.332  0.00  0.00     0.069 A 
ATOM     15  C12 INB d   0      -4.339 -11.440  29.459  0.00  0.00     0.006 A 
ATOM     16  C16 INB d   0      -3.250 -12.330  29.494  0.00  0.00     0.000 A 
ATOM     17  C15 INB d   0      -2.381 -12.414  28.396  0.00  0.00     0.000 A 
ATOM     18  C11 INB d   0      -2.595 -11.596  27.273  0.00  0.00     0.005 A 
BRANCH  14  19
ATOM     19  C7  INB d   0      -5.817  -9.745  28.360  0.00  0.00     0.211 C 
ATOM     20  O4  INB d   0      -5.674  -8.528  28.612  0.00  0.00    -0.644 OA
ATOM     21  O3  INB d   0      -6.948 -10.253  28.179  0.00  0.00    -0.644 OA
ENDBRANCH  14  19
ENDBRANCH  11  13
ENDBRANCH   1   9
BRANCH   4  22
ATOM     22  C8  INB d   0      -2.163  -5.730  22.543  0.00  0.00     0.079 A 
ATOM     23  C14 INB d   0      -0.961  -4.990  22.635  0.00  0.00     0.019 A 
ATOM     24  C18 INB d   0      -0.307  -4.549  21.469  0.00  0.00     0.002 A 
ATOM     25  C19 INB d   0      -0.849  -4.840  20.203  0.00  0.00     0.000 A 
ATOM     26  C17 INB d   0      -2.047  -5.572  20.103  0.00  0.00     0.002 A 
ATOM     27  C13 INB d   0      -2.702  -6.015  21.267  0.00  0.00     0.019 A 
ENDBRANCH   4  22
TORSDOF 4
ENDMDL
MODEL 5
REMARK VINA RESULT:    -6.987      4.343      8.438
REMARK INTER + INTRA:          -9.343
REMARK INTER:                  -8.462
REMARK INTRA:                  -0.880
REMARK UNBOUND:                -0.722
REMARK  4 active torsions:
REMARK  status: ('A' for Active; 'I' for Inactive)
REMARK    1  A    between atoms: C1_1  and  N3_9 
REMARK    2  A    between atoms: C8_22  and  N2_4 
REMARK       I    between atoms: N3_9  and  C4_10 
REMARK    3  A    between atoms: C4_10  and  C5_13 
REMARK    4  A    between atoms: C7_19  and  C6_14 
ROOT
ATOM      1  C1  INB d   0      -3.275 -10.239  28.483  0.00  0.00     0.125 A 
ATOM      2  C2  INB d   0      -2.803  -9.969  29.828  0.00  0.00     0.291 A 
ATOM      3  N1  INB d   0      -2.405 -12.107  29.279  0.00  0.00    -0.171 NA
ATOM      4  N2  INB d   0      -2.270 -11.130  30.267  0.00  0.00    -0.231 N 
ATOM      5  C3  INB d   0      -3.031 -11.530  28.202  0.00  0.00     0.054 A 
ATOM      6  O1  INB d   0      -2.874  -8.909  30.451  0.00  0.00    -0.264 OA
ATOM      7  C9  INB d   0      -1.235 -12.969  29.150  0.00  0.00     0.119 C 
ATOM      8  C10 INB d   0      -3.407 -12.369  26.993  0.00  0.00     0.047 C 
ENDROOT
BRANCH   1   9
ATOM      9  N3  INB d   0      -3.928  -9.255  27.731  0.00  0.00    -0.317 N 
ATOM     10  H1  INB d   0      -3.326  -8.580  27.283  0.00  0.00     0.169 HD
ATOM     11  C4  INB d   0      -5.244  -9.163  27.474  0.00  0.00     0.258 C 
ATOM     12  O2  INB d   0      -6.086 -10.010  27.771  0.00  0.00    -0.267 OA
BRANCH  11  13
ATOM     13  C5  INB d   0      -5.639  -7.922  26.719  0.00  0.00     0.062 A 
ATOM     14  C6  INB d   0      -6.491  -6.910  27.264  0.00  0.00     0.069 A 
ATOM     15  C12 INB d   0      -6.885  -5.836  26.432  0.00  0.00     0.006 A 
ATOM     16  C16 INB d   0      -6.435  -5.734  25.103  0.00  0.00     0.000 A 
ATOM     17  C15 INB d   0      -5.579  -6.715  24.580  0.00  0.00     0.000 A 
ATOM     18  C11 INB d   0      -5.189  -7.802  25.383  0.00  0.00     0.005 A 
BRANCH  14  19
ATOM     19  C7  INB d   0      -6.974  -6.898  28.697  0.00  0.00     0.211 C 
ATOM     20  O4  INB d   0      -8.183  -7.133  28.918  0.00  0.00    -0.644 OA
ATOM     21  O3  INB d   0      -6.178  -6.611  29.621  0.00  0.00    -0.644 OA
ENDBRANCH  14  19
ENDBRANCH  11  13
ENDBRANCH   1   9
BRANCH   4  22
ATOM     22  C8  INB d   0      -1.866 -11.429  31.601  0.00  0.00     0.079 A 
ATOM     23  C14 INB d   0      -2.737 -12.112  32.481  0.00  0.00     0.019 A 
ATOM     24  C18 INB d   0      -2.338 -12.394  33.801  0.00  0.00     0.002 A 
ATOM     25  C19 INB d   0      -1.066 -11.995  34.253  0.00  0.00     0.000 A 
ATOM     26  C17 INB d   0      -0.193 -11.311  33.385  0.00  0.00     0.002 A 
ATOM     27  C13 INB d   0      -0.591 -11.029  32.065  0.00  0.00     0.019 A 
ENDBRANCH   4  22
TORSDOF 4
ENDMDL
MODEL 6
REMARK VINA RESULT:    -6.915      4.628      9.050
REMARK INTER + INTRA:          -9.253
REMARK INTER:                  -8.278
REMARK INTRA:                  -0.976
REMARK UNBOUND:                -0.722
REMARK  4 active torsions:
REMARK  status: ('A' for Active; 'I' for Inactive)
REMARK    1  A    between atoms: C1_1  and  N3_9 
REMARK    2  A    between atoms: C8_22  and  N2_4 
REMARK       I    between atoms: N3_9  and  C4_10 
REMARK    3  A    between atoms: C4_10  and  C5_13 
REMARK    4  A    between atoms: C7_19  and  C6_14 
ROOT
ATOM      1  C1  INB d   0      -3.117 -10.876  28.660  0.00  0.00     0.125 A 
ATOM      2  C2  INB d   0      -2.904 -11.242  30.048  0.00  0.00     0.291 A 
ATOM      3  N1  INB d   0      -1.702 -12.572  28.701  0.00  0.00    -0.171 NA
ATOM      4  N2  INB d   0      -2.027 -12.269  30.024  0.00  0.00    -0.231 N 
ATOM      5  C3  INB d   0      -2.392 -11.705  27.891  0.00  0.00     0.054 A 
ATOM      6  O1  INB d   0      -3.416 -10.734  31.046  0.00  0.00    -0.264 OA
ATOM      7  C9  INB d   0      -0.291 -12.890  28.507  0.00  0.00     0.119 C 
ATOM      8  C10 INB d   0      -2.319 -11.845  26.380  0.00  0.00     0.047 C 
ENDROOT
BRANCH   1   9
ATOM      9  N3  INB d   0      -4.010  -9.859  28.306  0.00  0.00    -0.317 N 
ATOM     10  H1  INB d   0      -3.627  -8.925  28.305  0.00  0.00     0.169 HD
ATOM     11  C4  INB d   0      -5.280  -9.997  27.889  0.00  0.00     0.258 C 
ATOM     12  O2  INB d   0      -5.833 -11.068  27.639  0.00  0.00    -0.267 OA
BRANCH  11  13
ATOM     13  C5  INB d   0      -6.008  -8.695  27.687  0.00  0.00     0.062 A 
ATOM     14  C6  INB d   0      -5.649  -7.743  26.680  0.00  0.00     0.069 A 
ATOM     15  C12 INB d   0      -6.332  -6.505  26.644  0.00  0.00     0.006 A 
ATOM     16  C16 INB d   0      -7.366  -6.211  27.552  0.00  0.00     0.000 A 
ATOM     17  C15 INB d   0      -7.733  -7.157  28.522  0.00  0.00     0.000 A 
ATOM     18  C11 INB d   0      -7.055  -8.387  28.588  0.00  0.00     0.005 A 
BRANCH  14  19
ATOM     19  C7  INB d   0      -4.598  -7.993  25.622  0.00  0.00     0.211 C 
ATOM     20  O4  INB d   0      -3.397  -8.017  25.973  0.00  0.00    -0.644 OA
ATOM     21  O3  INB d   0      -4.939  -8.123  24.423  0.00  0.00    -0.644 OA
ENDBRANCH  14  19
ENDBRANCH  11  13
ENDBRANCH   1   9
BRANCH   4  22
ATOM     22  C8  INB d   0      -1.669 -13.107  31.122  0.00  0.00     0.079 A 
ATOM     23  C14 INB d   0      -2.247 -14.388  31.266  0.00  0.00     0.019 A 
ATOM     24  C18 INB d   0      -1.899 -15.207  32.358  0.00  0.00     0.002 A 
ATOM     25  C19 INB d   0      -0.972 -14.750  33.314  0.00  0.00     0.000 A 
ATOM     26  C17 INB d   0      -0.394 -13.473  33.179  0.00  0.00     0.002 A 
ATOM     27  C13 INB d   0      -0.741 -12.654  32.088  0.00  0.00     0.019 A 
ENDBRANCH   4  22
TORSDOF 4
ENDMDL
MODEL 7
REMARK VINA RESULT:    -6.890      2.300      7.960
REMARK INTER + INTRA:          -9.222
REMARK INTER:                  -8.491
REMARK INTRA:                  -0.732
REMARK UNBOUND:                -0.722
REMARK  4 active torsions:
REMARK  status: ('A' for Active; 'I' for Inactive)
REMARK    1  A    between atoms: C1_1  and  N3_9 
REMARK    2  A    between atoms: C8_22  and  N2_4 
REMARK       I    between atoms: N3_9  and  C4_10 
REMARK    3  A    between atoms: C4_10  and  C5_13 
REMARK    4  A    between atoms: C7_19  and  C6_14 
ROOT
ATOM      1  C1  INB d   0      -3.891  -7.044  25.982  0.00  0.00     0.125 A 
ATOM      2  C2  INB d   0      -3.137  -8.281  26.070  0.00  0.00     0.291 A 
ATOM      3  N1  INB d   0      -4.873  -8.326  27.489  0.00  0.00    -0.171 NA
ATOM      4  N2  INB d   0      -3.779  -9.034  26.990  0.00  0.00    -0.231 N 
ATOM      5  C3  INB d   0      -4.909  -7.108  26.855  0.00  0.00     0.054 A 
ATOM      6  O1  INB d   0      -2.120  -8.588  25.448  0.00  0.00    -0.264 OA
ATOM      7  C9  INB d   0      -6.059  -9.152  27.689  0.00  0.00     0.119 C 
ATOM      8  C10 INB d   0      -5.940  -6.066  27.254  0.00  0.00     0.047 C 
ENDROOT
BRANCH   1   9
ATOM      9  N3  INB d   0      -3.481  -6.003  25.141  0.00  0.00    -0.317 N 
ATOM     10  H1  INB d   0      -2.517  -5.721  25.237  0.00  0.00     0.169 HD
ATOM     11  C4  INB d   0      -4.197  -5.405  24.174  0.00  0.00     0.258 C 
ATOM     12  O2  INB d   0      -5.311  -5.763  23.791  0.00  0.00    -0.267 OA
BRANCH  11  13
ATOM     13  C5  INB d   0      -3.499  -4.243  23.519  0.00  0.00     0.062 A 
ATOM     14  C6  INB d   0      -2.685  -4.374  22.349  0.00  0.00     0.069 A 
ATOM     15  C12 INB d   0      -1.990  -3.236  21.876  0.00  0.00     0.006 A 
ATOM     16  C16 INB d   0      -2.110  -1.987  22.513  0.00  0.00     0.000 A 
ATOM     17  C15 INB d   0      -2.930  -1.856  23.644  0.00  0.00     0.000 A 
ATOM     18  C11 INB d   0      -3.615  -2.978  24.143  0.00  0.00     0.005 A 
BRANCH  14  19
ATOM     19  C7  INB d   0      -2.545  -5.657  21.560  0.00  0.00     0.211 C 
ATOM     20  O4  INB d   0      -2.648  -5.602  20.315  0.00  0.00    -0.644 OA
ATOM     21  O3  INB d   0      -2.378  -6.743  22.162  0.00  0.00    -0.644 OA
ENDBRANCH  14  19
ENDBRANCH  11  13
ENDBRANCH   1   9
BRANCH   4  22
ATOM     22  C8  INB d   0      -3.307 -10.245  27.577  0.00  0.00     0.079 A 
ATOM     23  C14 INB d   0      -2.827 -10.259  28.907  0.00  0.00     0.019 A 
ATOM     24  C18 INB d   0      -2.350 -11.455  29.478  0.00  0.00     0.002 A 
ATOM     25  C19 INB d   0      -2.349 -12.644  28.725  0.00  0.00     0.000 A 
ATOM     26  C17 INB d   0      -2.821 -12.637  27.399  0.00  0.00     0.002 A 
ATOM     27  C13 INB d   0      -3.299 -11.444  26.827  0.00  0.00     0.019 A 
ENDBRANCH   4  22
TORSDOF 4
ENDMDL
MODEL 8
REMARK VINA RESULT:    -6.872      1.297      2.608
REMARK INTER + INTRA:          -9.201
REMARK INTER:                  -8.604
REMARK INTRA:                  -0.597
REMARK UNBOUND:                -0.722
REMARK  4 active torsions:
REMARK  status: ('A' for Active; 'I' for Inactive)
REMARK    1  A    between atoms: C1_1  and  N3_9 
REMARK    2  A    between atoms: C8_22  and  N2_4 
REMARK       I    between atoms: N3_9  and  C4_10 
REMARK    3  A    between atoms: C4_10  and  C5_13 
REMARK    4  A    between atoms: C7_19  and  C6_14 
ROOT
ATOM      1  C1  INB d   0      -3.121  -5.617  26.167  0.00  0.00     0.125 A 
ATOM      2  C2  INB d   0      -3.457  -4.924  24.938  0.00  0.00     0.291 A 
ATOM      3  N1  INB d   0      -1.514  -4.160  25.755  0.00  0.00    -0.171 NA
ATOM      4  N2  INB d   0      -2.444  -4.057  24.720  0.00  0.00    -0.231 N 
ATOM      5  C3  INB d   0      -1.962  -5.119  26.628  0.00  0.00     0.054 A 
ATOM      6  O1  INB d   0      -4.457  -5.081  24.235  0.00  0.00    -0.264 OA
ATOM      7  C9  INB d   0      -0.129  -4.082  25.302  0.00  0.00     0.119 C 
ATOM      8  C10 INB d   0      -1.207  -5.397  27.916  0.00  0.00     0.047 C 
ENDROOT
BRANCH   1   9
ATOM      9  N3  INB d   0      -3.981  -6.573  26.720  0.00  0.00    -0.317 N 
ATOM     10  H1  INB d   0      -4.498  -6.274  27.534  0.00  0.00     0.169 HD
ATOM     11  C4  INB d   0      -4.254  -7.799  26.241  0.00  0.00     0.258 C 
ATOM     12  O2  INB d   0      -3.870  -8.240  25.158  0.00  0.00    -0.267 OA
BRANCH  11  13
ATOM     13  C5  INB d   0      -5.145  -8.625  27.131  0.00  0.00     0.062 A 
ATOM     14  C6  INB d   0      -4.912 -10.010  27.407  0.00  0.00     0.069 A 
ATOM     15  C12 INB d   0      -5.868 -10.718  28.172  0.00  0.00     0.006 A 
ATOM     16  C16 INB d   0      -7.014 -10.083  28.684  0.00  0.00     0.000 A 
ATOM     17  C15 INB d   0      -7.226  -8.719  28.433  0.00  0.00     0.000 A 
ATOM     18  C11 INB d   0      -6.299  -7.999  27.659  0.00  0.00     0.005 A 
BRANCH  14  19
ATOM     19  C7  INB d   0      -3.680 -10.763  26.956  0.00  0.00     0.211 C 
ATOM     20  O4  INB d   0      -2.615 -10.592  27.591  0.00  0.00    -0.644 OA
ATOM     21  O3  INB d   0      -3.734 -11.497  25.943  0.00  0.00    -0.644 OA
ENDBRANCH  14  19
ENDBRANCH  11  13
ENDBRANCH   1   9
BRANCH   4  22
ATOM     22  C8  INB d   0      -2.416  -3.008  23.754  0.00  0.00     0.079 A 
ATOM     23  C14 INB d   0      -2.864  -1.710  24.089  0.00  0.00     0.019 A 
ATOM     24  C18 INB d   0      -2.845  -0.681  23.127  0.00  0.00     0.002 A 
ATOM     25  C19 INB d   0      -2.381  -0.942  21.825  0.00  0.00     0.000 A 
ATOM     26  C17 INB d   0      -1.937  -2.234  21.481  0.00  0.00     0.002 A 
ATOM     27  C13 INB d   0      -1.955  -3.263  22.441  0.00  0.00     0.019 A 
ENDBRANCH   4  22
TORSDOF 4
ENDMDL
MODEL 9
REMARK VINA RESULT:    -6.835      2.186      7.697
REMARK INTER + INTRA:          -9.155
REMARK INTER:                  -8.276
REMARK INTRA:                  -0.880
REMARK UNBOUND:                -0.722
REMARK  4 active torsions:
REMARK  status: ('A' for Active; 'I' for Inactive)
REMARK    1  A    between atoms: C1_1  and  N3_9 
REMARK    2  A    between atoms: C8_22  and  N2_4 
REMARK       I    between atoms: N3_9  and  C4_10 
REMARK    3  A    between atoms: C4_10  and  C5_13 
REMARK    4  A    between atoms: C7_19  and  C6_14 
ROOT
ATOM      1  C1  INB d   0      -2.589  -6.257  25.925  0.00  0.00     0.125 A 
ATOM      2  C2  INB d   0      -3.121  -7.560  25.574  0.00  0.00     0.291 A 
ATOM      3  N1  INB d   0      -2.490  -7.533  27.726  0.00  0.00    -0.171 NA
ATOM      4  N2  INB d   0      -3.053  -8.299  26.704  0.00  0.00    -0.231 N 
ATOM      5  C3  INB d   0      -2.211  -6.290  27.214  0.00  0.00     0.054 A 
ATOM      6  O1  INB d   0      -3.543  -7.930  24.478  0.00  0.00    -0.264 OA
ATOM      7  C9  INB d   0      -3.128  -7.733  29.022  0.00  0.00     0.119 C 
ATOM      8  C10 INB d   0      -1.500  -5.252  28.064  0.00  0.00     0.047 C 
ENDROOT
BRANCH   1   9
ATOM      9  N3  INB d   0      -2.473  -5.240  24.971  0.00  0.00    -0.317 N 
ATOM     10  H1  INB d   0      -1.532  -5.032  24.670  0.00  0.00     0.169 HD
ATOM     11  C4  INB d   0      -3.468  -4.578  24.358  0.00  0.00     0.258 C 
ATOM     12  O2  INB d   0      -4.665  -4.847  24.456  0.00  0.00    -0.267 OA
BRANCH  11  13
ATOM     13  C5  INB d   0      -3.006  -3.464  23.457  0.00  0.00     0.062 A 
ATOM     14  C6  INB d   0      -2.453  -3.685  22.156  0.00  0.00     0.069 A 
ATOM     15  C12 INB d   0      -1.953  -2.575  21.435  0.00  0.00     0.006 A 
ATOM     16  C16 INB d   0      -2.017  -1.271  21.959  0.00  0.00     0.000 A 
ATOM     17  C15 INB d   0      -2.583  -1.055  23.225  0.00  0.00     0.000 A 
ATOM     18  C11 INB d   0      -3.070  -2.145  23.967  0.00  0.00     0.005 A 
BRANCH  14  19
ATOM     19  C7  INB d   0      -2.399  -5.038  21.482  0.00  0.00     0.211 C 
ATOM     20  O4  INB d   0      -1.666  -5.920  21.982  0.00  0.00    -0.644 OA
ATOM     21  O3  INB d   0      -3.044  -5.235  20.427  0.00  0.00    -0.644 OA
ENDBRANCH  14  19
ENDBRANCH  11  13
ENDBRANCH   1   9
BRANCH   4  22
ATOM     22  C8  INB d   0      -3.261  -9.705  26.815  0.00  0.00     0.079 A 
ATOM     23  C14 INB d   0      -2.164 -10.596  26.819  0.00  0.00     0.019 A 
ATOM     24  C18 INB d   0      -2.375 -11.985  26.916  0.00  0.00     0.002 A 
ATOM     25  C19 INB d   0      -3.685 -12.493  27.008  0.00  0.00     0.000 A 
ATOM     26  C17 INB d   0      -4.783 -11.613  27.000  0.00  0.00     0.002 A 
ATOM     27  C13 INB d   0      -4.573 -10.225  26.904  0.00  0.00     0.019 A 
ENDBRANCH   4  22
TORSDOF 4
ENDMDL
MODEL 10
REMARK VINA RESULT:    -6.758      2.451      7.860
REMARK INTER + INTRA:          -9.060
REMARK INTER:                  -8.308
REMARK INTRA:                  -0.752
REMARK UNBOUND:                -0.722
REMARK  4 active torsions:
REMARK  status: ('A' for Active; 'I' for Inactive)
REMARK    1  A    between atoms: C1_1  and  N3_9 
REMARK    2  A    between atoms: C8_22  and  N2_4 
REMARK       I    between atoms: N3_9  and  C4_10 
REMARK    3  A    between atoms: C4_10  and  C5_13 
REMARK    4  A    between atoms: C7_19  and  C6_14 
ROOT
ATOM      1  C1  INB d   0      -3.882  -7.453  25.590  0.00  0.00     0.125 A 
ATOM      2  C2  INB d   0      -3.318  -8.702  26.064  0.00  0.00     0.291 A 
ATOM      3  N1  INB d   0      -5.040  -8.086  27.361  0.00  0.00    -0.171 NA
ATOM      4  N2  INB d   0      -4.063  -9.056  27.135  0.00  0.00    -0.231 N 
ATOM      5  C3  INB d   0      -4.897  -7.114  26.402  0.00  0.00     0.054 A 
ATOM      6  O1  INB d   0      -2.357  -9.318  25.601  0.00  0.00    -0.264 OA
ATOM      7  C9  INB d   0      -6.334  -8.642  27.743  0.00  0.00     0.119 C 
ATOM      8  C10 INB d   0      -5.763  -5.867  26.438  0.00  0.00     0.047 C 
ENDROOT
BRANCH   1   9
ATOM      9  N3  INB d   0      -3.325  -6.771  24.502  0.00  0.00    -0.317 N 
ATOM     10  H1  INB d   0      -2.320  -6.669  24.521  0.00  0.00     0.169 HD
ATOM     11  C4  INB d   0      -3.962  -6.321  23.408  0.00  0.00     0.258 C 
ATOM     12  O2  INB d   0      -5.141  -6.542  23.132  0.00  0.00    -0.267 OA
BRANCH  11  13
ATOM     13  C5  INB d   0      -3.090  -5.533  22.466  0.00  0.00     0.062 A 
ATOM     14  C6  INB d   0      -2.664  -4.192  22.729  0.00  0.00     0.069 A 
ATOM     15  C12 INB d   0      -1.934  -3.506  21.730  0.00  0.00     0.006 A 
ATOM     16  C16 INB d   0      -1.599  -4.124  20.511  0.00  0.00     0.000 A 
ATOM     17  C15 INB d   0      -1.997  -5.448  20.268  0.00  0.00     0.000 A 
ATOM     18  C11 INB d   0      -2.739  -6.143  21.239  0.00  0.00     0.005 A 
BRANCH  14  19
ATOM     19  C7  INB d   0      -2.919  -3.467  24.032  0.00  0.00     0.211 C 
ATOM     20  O4  INB d   0      -3.503  -2.362  23.990  0.00  0.00    -0.644 OA
ATOM     21  O3  INB d   0      -2.505  -3.957  25.108  0.00  0.00    -0.644 OA
ENDBRANCH  14  19
ENDBRANCH  11  13
ENDBRANCH   1   9
BRANCH   4  22
ATOM     22  C8  INB d   0      -3.773 -10.095  28.067  0.00  0.00     0.079 A 
ATOM     23  C14 INB d   0      -4.238 -11.411  27.843  0.00  0.00     0.019 A 
ATOM     24  C18 INB d   0      -3.959 -12.432  28.773  0.00  0.00     0.002 A 
ATOM     25  C19 INB d   0      -3.216 -12.144  29.933  0.00  0.00     0.000 A 
ATOM     26  C17 INB d   0      -2.753 -10.835  30.165  0.00  0.00     0.002 A 
ATOM     27  C13 INB d   0      -3.030  -9.815  29.237  0.00  0.00     0.019 A 
ENDBRANCH   4  22
TORSDOF 4
ENDMDL
