@<TRIPOS>MOLECULE
./may18.pdb
 24 25 0 0 0
SMALL
GASTEIGER

@<TRIPOS>ATOM
      1  C1       -51.4970  -14.2980   13.8600 C.ar    0  INB0        0.0867
      2  C2       -52.0020  -15.3130   13.0560 C.ar    0  INB0        0.0919
      3  C3       -51.7180  -15.1050   11.6580 C.ar    0  INB0       -0.0054
      4  C4       -51.0120  -13.9520   11.4440 C.ar    0  INB0        0.0615
      5  S1       -50.6370  -13.1110   12.9130 S.2     0  INB0       -0.0694
      6  C6       -50.5630  -13.4350   10.1580 C.2     0  INB0        0.1787
      7  O2       -49.8880  -12.4140   10.0320 O.2     0  INB0       -0.2908
      8  C9       -52.0850  -15.9940   10.4940 C.3     0  INB0        0.0277
      9  C12      -51.0050  -14.2350    8.9300 C.3     0  INB0        0.0700
     10  C13      -51.1990  -15.7340    9.2530 C.3     0  INB0        0.0128
     11  N1       -51.5650  -14.1260   15.2040 N.am    0  INB0       -0.2788
     12  C7       -50.7080  -14.6430   16.1020 C.2     0  INB0        0.2270
     13  O3       -49.4870  -14.4910   16.0460 O.2     0  INB0       -0.2747
     14  H1       -52.4110  -13.7120   15.5660 H       0  INB0        0.1553
     15  C10      -51.3340  -15.4590   17.2360 C.3     0  INB0        0.0972
     16  C11      -50.5080  -15.3920   18.5390 C.3     0  INB0        0.1236
     17  C8       -49.4790  -16.5220   18.6560 C.2     0  INB0        0.3654
     18  O4       -49.6750  -17.4290   19.4950 O.co2   0  INB0       -0.2456
     19  O6       -48.4970  -16.4580   17.8850 O.co2   0  INB0       -0.2456
     20  C5       -52.7190  -16.4750   13.5960 C.2     0  INB0        0.3426
     21  O1       -52.3440  -17.1370   14.5660 O.2     0  INB0       -0.2448
     22  O5       -53.8610  -16.7440   12.9270 O.3     0  INB0       -0.4454
     23  C14      -55.1010  -16.8690   13.6120 C.3     0  INB0        0.2089
     24  C15      -55.3980  -15.6080   14.4340 C.3     0  INB0        0.0513
@<TRIPOS>BOND
     1     9    10    1
     2     9     6    1
     3    10     8    1
     4     7     6    2
     5     6     4    1
     6     8     3    1
     7     4     3   ar
     8     4     5   ar
     9     3     2   ar
    10     5     1   ar
    11    22    20    1
    12    22    23    1
    13     2    20    1
    14     2     1   ar
    15    20    21    2
    16    23    24    1
    17     1    11    1
    18    11    14    1
    19    11    12   am
    20    13    12    2
    21    12    15    1
    22    15    16    1
    23    19    17   ar
    24    16    17    1
    25    17    18   ar
