MODEL 1
REMARK VINA RESULT:    -7.177      0.000      0.000
REMARK INTER + INTRA:         -13.055
REMARK INTER:                 -11.373
REMARK INTRA:                  -1.682
REMARK UNBOUND:                -1.682
REMARK  10 active torsions:
REMARK  status: ('A' for Active; 'I' for Inactive)
REMARK    1  A    between atoms: N1_18  and  C1_1 
REMARK    2  A    between atoms: C1_1  and  C2_3 
REMARK    3  A    between atoms: C4_2  and  C9_28 
REMARK       I    between atoms: C2_3  and  N3_4 
REMARK    4  A    between atoms: N3_4  and  N2_7 
REMARK    5  A    between atoms: C14_8  and  C15_9 
REMARK    6  A    between atoms: C6_12  and  C5_15 
REMARK       I    between atoms: C3_19  and  N1_18 
REMARK    7  A    between atoms: C8_22  and  C3_19 
REMARK    8  A    between atoms: C7_31  and  N4_34 
REMARK    9  A    between atoms: N4_34  and  C20_35 
REMARK   10  A    between atoms: N4_34  and  C21_37 
ROOT
ATOM      1  C1  INB d   0      -2.359  -6.037  23.337  0.00  0.00     0.117 C 
ATOM      2  C4  INB d   0      -3.551  -5.522  23.758  0.00  0.00     0.022 C 
ENDROOT
BRANCH   1   3
ATOM      3  N1  INB d   0      -1.765  -5.706  22.108  0.00  0.00    -0.317 N 
ATOM      4  C3  INB d   0      -1.221  -4.540  21.705  0.00  0.00     0.258 C 
ATOM      5  O2  INB d   0      -1.071  -3.544  22.413  0.00  0.00    -0.267 OA
ATOM      6  H1  INB d   0      -1.804  -6.441  21.417  0.00  0.00     0.169 HD
BRANCH   4   7
ATOM      7  C8  INB d   0      -0.878  -4.481  20.243  0.00  0.00     0.056 A 
ATOM      8  C22 INB d   0      -1.372  -5.468  19.361  0.00  0.00     0.005 A 
ATOM      9  C27 INB d   0      -1.074  -5.414  17.986  0.00  0.00     0.000 A 
ATOM     10  C28 INB d   0      -0.283  -4.367  17.477  0.00  0.00     0.000 A 
ATOM     11  C26 INB d   0       0.205  -3.371  18.344  0.00  0.00     0.000 A 
ATOM     12  C23 INB d   0      -0.093  -3.425  19.720  0.00  0.00     0.005 A 
ENDBRANCH   4   7
ENDBRANCH   1   3
BRANCH   1  13
ATOM     13  C2  INB d   0      -1.548  -6.975  24.122  0.00  0.00     0.289 C 
ATOM     14  O1  INB d   0      -0.441  -6.697  24.590  0.00  0.00    -0.264 OA
ATOM     15  N3  INB d   0      -2.092  -8.197  24.238  0.00  0.00    -0.241 N 
ATOM     16  H3  INB d   0      -2.952  -8.412  23.755  0.00  0.00     0.192 HD
BRANCH  15  17
ATOM     17  N2  INB d   0      -1.666  -9.148  25.096  0.00  0.00    -0.169 NA
ATOM     18  C14 INB d   0      -1.782  -8.863  26.344  0.00  0.00     0.120 C 
BRANCH  18  19
ATOM     19  C15 INB d   0      -2.042  -9.881  27.372  0.00  0.00     0.021 A 
ATOM     20  C18 INB d   0      -2.510 -11.150  26.972  0.00  0.00     0.002 A 
ATOM     21  C11 INB d   0      -2.772 -12.150  27.930  0.00  0.00     0.006 A 
ATOM     22  C6  INB d   0      -2.571 -11.897  29.307  0.00  0.00     0.064 A 
ATOM     23  C10 INB d   0      -2.105 -10.623  29.704  0.00  0.00     0.006 A 
ATOM     24  C19 INB d   0      -1.842  -9.623  28.748  0.00  0.00     0.002 A 
BRANCH  22  25
ATOM     25  C5  INB d   0      -2.853 -12.964  30.330  0.00  0.00     0.211 C 
ATOM     26  O4  INB d   0      -1.910 -13.686  30.724  0.00  0.00    -0.644 OA
ATOM     27  O3  INB d   0      -4.020 -13.097  30.757  0.00  0.00    -0.644 OA
ENDBRANCH  22  25
ENDBRANCH  18  19
ENDBRANCH  15  17
ENDBRANCH   1  13
BRANCH   2  28
ATOM     28  C9  INB d   0      -4.407  -5.935  24.885  0.00  0.00     0.002 A 
ATOM     29  C17 INB d   0      -3.952  -5.889  26.218  0.00  0.00     0.002 A 
ATOM     30  C13 INB d   0      -4.770  -6.340  27.272  0.00  0.00     0.017 A 
ATOM     31  C7  INB d   0      -6.074  -6.840  27.026  0.00  0.00     0.056 A 
ATOM     32  C12 INB d   0      -6.531  -6.849  25.684  0.00  0.00     0.017 A 
ATOM     33  C16 INB d   0      -5.711  -6.399  24.631  0.00  0.00     0.002 A 
BRANCH  31  34
ATOM     34  N4  INB d   0      -6.857  -7.301  28.045  0.00  0.00    -0.348 N 
BRANCH  34  35
ATOM     35  C20 INB d   0      -7.001  -8.720  28.379  0.00  0.00     0.102 C 
ATOM     36  C25 INB d   0      -5.736  -9.526  28.052  0.00  0.00     0.026 C 
ENDBRANCH  34  35
BRANCH  34  37
ATOM     37  C21 INB d   0      -7.664  -6.434  28.906  0.00  0.00     0.102 C 
ATOM     38  C24 INB d   0      -6.867  -5.912  30.111  0.00  0.00     0.026 C 
ENDBRANCH  34  37
ENDBRANCH  31  34
ENDBRANCH   2  28
TORSDOF 10
ENDMDL
MODEL 2
REMARK VINA RESULT:    -6.785      2.993      4.078
REMARK INTER + INTRA:         -12.433
REMARK INTER:                 -10.809
REMARK INTRA:                  -1.624
REMARK UNBOUND:                -1.682
REMARK  10 active torsions:
REMARK  status: ('A' for Active; 'I' for Inactive)
REMARK    1  A    between atoms: N1_18  and  C1_1 
REMARK    2  A    between atoms: C1_1  and  C2_3 
REMARK    3  A    between atoms: C4_2  and  C9_28 
REMARK       I    between atoms: C2_3  and  N3_4 
REMARK    4  A    between atoms: N3_4  and  N2_7 
REMARK    5  A    between atoms: C14_8  and  C15_9 
REMARK    6  A    between atoms: C6_12  and  C5_15 
REMARK       I    between atoms: C3_19  and  N1_18 
REMARK    7  A    between atoms: C8_22  and  C3_19 
REMARK    8  A    between atoms: C7_31  and  N4_34 
REMARK    9  A    between atoms: N4_34  and  C20_35 
REMARK   10  A    between atoms: N4_34  and  C21_37 
ROOT
ATOM      1  C1  INB d   0      -2.341  -5.761  22.386  0.00  0.00     0.117 C 
ATOM      2  C4  INB d   0      -3.046  -6.930  22.402  0.00  0.00     0.022 C 
ENDROOT
BRANCH   1   3
ATOM      3  N1  INB d   0      -1.730  -5.244  21.232  0.00  0.00    -0.317 N 
ATOM      4  C3  INB d   0      -0.485  -4.756  21.066  0.00  0.00     0.258 C 
ATOM      5  O2  INB d   0       0.399  -4.760  21.924  0.00  0.00    -0.267 OA
ATOM      6  H1  INB d   0      -2.341  -5.187  20.428  0.00  0.00     0.169 HD
BRANCH   4   7
ATOM      7  C8  INB d   0      -0.245  -4.083  19.744  0.00  0.00     0.056 A 
ATOM      8  C22 INB d   0      -0.274  -4.840  18.551  0.00  0.00     0.005 A 
ATOM      9  C27 INB d   0      -0.070  -4.218  17.304  0.00  0.00     0.000 A 
ATOM     10  C28 INB d   0       0.158  -2.831  17.237  0.00  0.00     0.000 A 
ATOM     11  C26 INB d   0       0.177  -2.065  18.417  0.00  0.00     0.000 A 
ATOM     12  C23 INB d   0      -0.027  -2.687  19.665  0.00  0.00     0.005 A 
ENDBRANCH   4   7
ENDBRANCH   1   3
BRANCH   1  13
ATOM     13  C2  INB d   0      -2.157  -4.897  23.557  0.00  0.00     0.289 C 
ATOM     14  O1  INB d   0      -2.612  -3.754  23.643  0.00  0.00    -0.264 OA
ATOM     15  N3  INB d   0      -1.391  -5.440  24.517  0.00  0.00    -0.241 N 
ATOM     16  H3  INB d   0      -0.956  -6.338  24.365  0.00  0.00     0.192 HD
BRANCH  15  17
ATOM     17  N2  INB d   0      -1.272  -4.955  25.770  0.00  0.00    -0.169 NA
ATOM     18  C14 INB d   0      -2.129  -5.395  26.622  0.00  0.00     0.120 C 
BRANCH  18  19
ATOM     19  C15 INB d   0      -1.817  -5.571  28.047  0.00  0.00     0.021 A 
ATOM     20  C18 INB d   0      -2.744  -6.246  28.869  0.00  0.00     0.002 A 
ATOM     21  C11 INB d   0      -2.480  -6.432  30.241  0.00  0.00     0.006 A 
ATOM     22  C6  INB d   0      -1.283  -5.945  30.815  0.00  0.00     0.064 A 
ATOM     23  C10 INB d   0      -0.358  -5.267  29.989  0.00  0.00     0.006 A 
ATOM     24  C19 INB d   0      -0.620  -5.082  28.618  0.00  0.00     0.002 A 
BRANCH  22  25
ATOM     25  C5  INB d   0      -1.002  -6.142  32.281  0.00  0.00     0.211 C 
ATOM     26  O4  INB d   0      -0.434  -7.193  32.650  0.00  0.00    -0.644 OA
ATOM     27  O3  INB d   0      -1.343  -5.247  33.085  0.00  0.00    -0.644 OA
ENDBRANCH  22  25
ENDBRANCH  18  19
ENDBRANCH  15  17
ENDBRANCH   1  13
BRANCH   2  28
ATOM     28  C9  INB d   0      -3.537  -7.714  23.551  0.00  0.00     0.002 A 
ATOM     29  C17 INB d   0      -4.674  -7.321  24.286  0.00  0.00     0.002 A 
ATOM     30  C13 INB d   0      -5.091  -8.058  25.411  0.00  0.00     0.017 A 
ATOM     31  C7  INB d   0      -4.390  -9.218  25.830  0.00  0.00     0.056 A 
ATOM     32  C12 INB d   0      -3.268  -9.619  25.061  0.00  0.00     0.017 A 
ATOM     33  C16 INB d   0      -2.852  -8.881  23.937  0.00  0.00     0.002 A 
BRANCH  31  34
ATOM     34  N4  INB d   0      -4.779  -9.916  26.937  0.00  0.00    -0.348 N 
BRANCH  34  35
ATOM     35  C20 INB d   0      -5.259  -9.285  28.168  0.00  0.00     0.102 C 
ATOM     36  C25 INB d   0      -6.737  -9.595  28.443  0.00  0.00     0.026 C 
ENDBRANCH  34  35
BRANCH  34  37
ATOM     37  C21 INB d   0      -4.738 -11.377  27.031  0.00  0.00     0.102 C 
ATOM     38  C24 INB d   0      -3.712 -11.861  28.067  0.00  0.00     0.026 C 
ENDBRANCH  34  37
ENDBRANCH  31  34
ENDBRANCH   2  28
TORSDOF 10
ENDMDL
MODEL 3
REMARK VINA RESULT:    -6.264      3.661      6.730
REMARK INTER + INTRA:         -11.607
REMARK INTER:                 -10.187
REMARK INTRA:                  -1.420
REMARK UNBOUND:                -1.682
REMARK  10 active torsions:
REMARK  status: ('A' for Active; 'I' for Inactive)
REMARK    1  A    between atoms: N1_18  and  C1_1 
REMARK    2  A    between atoms: C1_1  and  C2_3 
REMARK    3  A    between atoms: C4_2  and  C9_28 
REMARK       I    between atoms: C2_3  and  N3_4 
REMARK    4  A    between atoms: N3_4  and  N2_7 
REMARK    5  A    between atoms: C14_8  and  C15_9 
REMARK    6  A    between atoms: C6_12  and  C5_15 
REMARK       I    between atoms: C3_19  and  N1_18 
REMARK    7  A    between atoms: C8_22  and  C3_19 
REMARK    8  A    between atoms: C7_31  and  N4_34 
REMARK    9  A    between atoms: N4_34  and  C20_35 
REMARK   10  A    between atoms: N4_34  and  C21_37 
ROOT
ATOM      1  C1  INB d   0      -3.549  -6.792  25.962  0.00  0.00     0.117 C 
ATOM      2  C4  INB d   0      -2.722  -7.878  25.948  0.00  0.00     0.022 C 
ENDROOT
BRANCH   1   3
ATOM      3  N1  INB d   0      -3.347  -5.658  25.159  0.00  0.00    -0.317 N 
ATOM      4  C3  INB d   0      -3.756  -5.415  23.898  0.00  0.00     0.258 C 
ATOM      5  O2  INB d   0      -4.485  -6.153  23.235  0.00  0.00    -0.267 OA
ATOM      6  H1  INB d   0      -2.764  -4.948  25.582  0.00  0.00     0.169 HD
BRANCH   4   7
ATOM      7  C8  INB d   0      -3.168  -4.181  23.274  0.00  0.00     0.056 A 
ATOM      8  C22 INB d   0      -3.231  -2.946  23.957  0.00  0.00     0.005 A 
ATOM      9  C27 INB d   0      -2.667  -1.787  23.391  0.00  0.00     0.000 A 
ATOM     10  C28 INB d   0      -2.028  -1.852  22.139  0.00  0.00     0.000 A 
ATOM     11  C26 INB d   0      -1.949  -3.079  21.455  0.00  0.00     0.000 A 
ATOM     12  C23 INB d   0      -2.513  -4.240  22.020  0.00  0.00     0.005 A 
ENDBRANCH   4   7
ENDBRANCH   1   3
BRANCH   1  13
ATOM     13  C2  INB d   0      -4.752  -6.688  26.795  0.00  0.00     0.289 C 
ATOM     14  O1  INB d   0      -5.901  -6.761  26.352  0.00  0.00    -0.264 OA
ATOM     15  N3  INB d   0      -4.496  -6.442  28.091  0.00  0.00    -0.241 N 
ATOM     16  H3  INB d   0      -3.545  -6.290  28.395  0.00  0.00     0.192 HD
BRANCH  15  17
ATOM     17  N2  INB d   0      -5.403  -6.540  29.084  0.00  0.00    -0.169 NA
ATOM     18  C14 INB d   0      -4.937  -6.428  30.277  0.00  0.00     0.120 C 
BRANCH  18  19
ATOM     19  C15 INB d   0      -5.706  -5.838  31.381  0.00  0.00     0.021 A 
ATOM     20  C18 INB d   0      -5.131  -5.798  32.669  0.00  0.00     0.002 A 
ATOM     21  C11 INB d   0      -5.840  -5.242  33.752  0.00  0.00     0.006 A 
ATOM     22  C6  INB d   0      -7.139  -4.714  33.566  0.00  0.00     0.064 A 
ATOM     23  C10 INB d   0      -7.713  -4.757  32.276  0.00  0.00     0.006 A 
ATOM     24  C19 INB d   0      -7.005  -5.312  31.192  0.00  0.00     0.002 A 
BRANCH  22  25
ATOM     25  C5  INB d   0      -7.896  -4.121  34.724  0.00  0.00     0.211 C 
ATOM     26  O4  INB d   0      -9.132  -4.304  34.793  0.00  0.00    -0.644 OA
ATOM     27  O3  INB d   0      -7.268  -3.464  35.582  0.00  0.00    -0.644 OA
ENDBRANCH  22  25
ENDBRANCH  18  19
ENDBRANCH  15  17
ENDBRANCH   1  13
BRANCH   2  28
ATOM     28  C9  INB d   0      -2.660  -9.022  26.876  0.00  0.00     0.002 A 
ATOM     29  C17 INB d   0      -3.302 -10.244  26.593  0.00  0.00     0.002 A 
ATOM     30  C13 INB d   0      -3.272 -11.303  27.520  0.00  0.00     0.017 A 
ATOM     31  C7  INB d   0      -2.587 -11.178  28.756  0.00  0.00     0.056 A 
ATOM     32  C12 INB d   0      -1.917  -9.955  29.012  0.00  0.00     0.017 A 
ATOM     33  C16 INB d   0      -1.949  -8.896  28.084  0.00  0.00     0.002 A 
BRANCH  31  34
ATOM     34  N4  INB d   0      -2.580 -12.196  29.665  0.00  0.00    -0.348 N 
BRANCH  34  35
ATOM     35  C20 INB d   0      -3.763 -12.621  30.417  0.00  0.00     0.102 C 
ATOM     36  C25 INB d   0      -3.631 -12.333  31.919  0.00  0.00     0.026 C 
ENDBRANCH  34  35
BRANCH  34  37
ATOM     37  C21 INB d   0      -1.383 -12.964  30.015  0.00  0.00     0.102 C 
ATOM     38  C24 INB d   0      -0.472 -13.200  28.801  0.00  0.00     0.026 C 
ENDBRANCH  34  37
ENDBRANCH  31  34
ENDBRANCH   2  28
TORSDOF 10
ENDMDL
MODEL 4
REMARK VINA RESULT:    -5.872      3.447      6.608
REMARK INTER + INTRA:         -10.987
REMARK INTER:                  -9.333
REMARK INTRA:                  -1.654
REMARK UNBOUND:                -1.682
REMARK  10 active torsions:
REMARK  status: ('A' for Active; 'I' for Inactive)
REMARK    1  A    between atoms: N1_18  and  C1_1 
REMARK    2  A    between atoms: C1_1  and  C2_3 
REMARK    3  A    between atoms: C4_2  and  C9_28 
REMARK       I    between atoms: C2_3  and  N3_4 
REMARK    4  A    between atoms: N3_4  and  N2_7 
REMARK    5  A    between atoms: C14_8  and  C15_9 
REMARK    6  A    between atoms: C6_12  and  C5_15 
REMARK       I    between atoms: C3_19  and  N1_18 
REMARK    7  A    between atoms: C8_22  and  C3_19 
REMARK    8  A    between atoms: C7_31  and  N4_34 
REMARK    9  A    between atoms: N4_34  and  C20_35 
REMARK   10  A    between atoms: N4_34  and  C21_37 
ROOT
ATOM      1  C1  INB d   0      -3.103  -7.343  26.205  0.00  0.00     0.117 C 
ATOM      2  C4  INB d   0      -2.886  -8.690  26.146  0.00  0.00     0.022 C 
ENDROOT
BRANCH   1   3
ATOM      3  N1  INB d   0      -2.936  -6.485  25.106  0.00  0.00    -0.317 N 
ATOM      4  C3  INB d   0      -3.854  -6.009  24.241  0.00  0.00     0.258 C 
ATOM      5  O2  INB d   0      -5.069  -6.189  24.327  0.00  0.00    -0.267 OA
ATOM      6  H1  INB d   0      -1.974  -6.238  24.914  0.00  0.00     0.169 HD
BRANCH   4   7
ATOM      7  C8  INB d   0      -3.283  -5.291  23.051  0.00  0.00     0.056 A 
ATOM      8  C22 INB d   0      -2.852  -3.951  23.175  0.00  0.00     0.005 A 
ATOM      9  C27 INB d   0      -2.298  -3.273  22.072  0.00  0.00     0.000 A 
ATOM     10  C28 INB d   0      -2.162  -3.931  20.835  0.00  0.00     0.000 A 
ATOM     11  C26 INB d   0      -2.576  -5.269  20.704  0.00  0.00     0.000 A 
ATOM     12  C23 INB d   0      -3.132  -5.948  21.806  0.00  0.00     0.005 A 
ENDBRANCH   4   7
ENDBRANCH   1   3
BRANCH   1  13
ATOM     13  C2  INB d   0      -3.554  -6.637  27.409  0.00  0.00     0.289 C 
ATOM     14  O1  INB d   0      -2.791  -6.100  28.215  0.00  0.00    -0.264 OA
ATOM     15  N3  INB d   0      -4.884  -6.676  27.595  0.00  0.00    -0.241 N 
ATOM     16  H3  INB d   0      -5.464  -7.211  26.965  0.00  0.00     0.192 HD
BRANCH  15  17
ATOM     17  N2  INB d   0      -5.558  -5.913  28.480  0.00  0.00    -0.169 NA
ATOM     18  C14 INB d   0      -6.051  -6.537  29.490  0.00  0.00     0.120 C 
BRANCH  18  19
ATOM     19  C15 INB d   0      -6.189  -5.922  30.817  0.00  0.00     0.021 A 
ATOM     20  C18 INB d   0      -5.092  -5.957  31.703  0.00  0.00     0.002 A 
ATOM     21  C11 INB d   0      -5.189  -5.379  32.985  0.00  0.00     0.006 A 
ATOM     22  C6  INB d   0      -6.386  -4.755  33.403  0.00  0.00     0.064 A 
ATOM     23  C10 INB d   0      -7.484  -4.722  32.514  0.00  0.00     0.006 A 
ATOM     24  C19 INB d   0      -7.389  -5.299  31.233  0.00  0.00     0.002 A 
BRANCH  22  25
ATOM     25  C5  INB d   0      -6.490  -4.138  34.772  0.00  0.00     0.211 C 
ATOM     26  O4  INB d   0      -7.559  -3.581  35.103  0.00  0.00    -0.644 OA
ATOM     27  O3  INB d   0      -5.504  -4.203  35.539  0.00  0.00    -0.644 OA
ENDBRANCH  22  25
ENDBRANCH  18  19
ENDBRANCH  15  17
ENDBRANCH   1  13
BRANCH   2  28
ATOM     28  C9  INB d   0      -2.789  -9.673  27.239  0.00  0.00     0.002 A 
ATOM     29  C17 INB d   0      -1.646  -9.761  28.060  0.00  0.00     0.002 A 
ATOM     30  C13 INB d   0      -1.557 -10.745  29.063  0.00  0.00     0.017 A 
ATOM     31  C7  INB d   0      -2.614 -11.665  29.286  0.00  0.00     0.056 A 
ATOM     32  C12 INB d   0      -3.771 -11.542  28.476  0.00  0.00     0.017 A 
ATOM     33  C16 INB d   0      -3.858 -10.559  27.471  0.00  0.00     0.002 A 
BRANCH  31  34
ATOM     34  N4  INB d   0      -2.515 -12.635  30.242  0.00  0.00    -0.348 N 
BRANCH  34  35
ATOM     35  C20 INB d   0      -3.597 -12.971  31.171  0.00  0.00     0.102 C 
ATOM     36  C25 INB d   0      -3.646 -12.018  32.374  0.00  0.00     0.026 C 
ENDBRANCH  34  35
BRANCH  34  37
ATOM     37  C21 INB d   0      -1.309 -13.434  30.466  0.00  0.00     0.102 C 
ATOM     38  C24 INB d   0      -1.594 -14.685  31.311  0.00  0.00     0.026 C 
ENDBRANCH  34  37
ENDBRANCH  31  34
ENDBRANCH   2  28
TORSDOF 10
ENDMDL
MODEL 5
REMARK VINA RESULT:    -5.847      1.955      7.719
REMARK INTER + INTRA:         -10.947
REMARK INTER:                 -10.768
REMARK INTRA:                  -0.178
REMARK UNBOUND:                -1.682
REMARK  10 active torsions:
REMARK  status: ('A' for Active; 'I' for Inactive)
REMARK    1  A    between atoms: N1_18  and  C1_1 
REMARK    2  A    between atoms: C1_1  and  C2_3 
REMARK    3  A    between atoms: C4_2  and  C9_28 
REMARK       I    between atoms: C2_3  and  N3_4 
REMARK    4  A    between atoms: N3_4  and  N2_7 
REMARK    5  A    between atoms: C14_8  and  C15_9 
REMARK    6  A    between atoms: C6_12  and  C5_15 
REMARK       I    between atoms: C3_19  and  N1_18 
REMARK    7  A    between atoms: C8_22  and  C3_19 
REMARK    8  A    between atoms: C7_31  and  N4_34 
REMARK    9  A    between atoms: N4_34  and  C20_35 
REMARK   10  A    between atoms: N4_34  and  C21_37 
ROOT
ATOM      1  C1  INB d   0      -3.418  -6.366  24.166  0.00  0.00     0.117 C 
ATOM      2  C4  INB d   0      -3.616  -5.534  23.102  0.00  0.00     0.022 C 
ENDROOT
BRANCH   1   3
ATOM      3  N1  INB d   0      -4.355  -6.536  25.198  0.00  0.00    -0.317 N 
ATOM      4  C3  INB d   0      -5.575  -5.985  25.349  0.00  0.00     0.258 C 
ATOM      5  O2  INB d   0      -6.136  -5.266  24.521  0.00  0.00    -0.267 OA
ATOM      6  H1  INB d   0      -4.033  -7.119  25.959  0.00  0.00     0.169 HD
BRANCH   4   7
ATOM      7  C8  INB d   0      -6.210  -6.222  26.690  0.00  0.00     0.056 A 
ATOM      8  C22 INB d   0      -7.612  -6.363  26.792  0.00  0.00     0.005 A 
ATOM      9  C27 INB d   0      -8.218  -6.605  28.040  0.00  0.00     0.000 A 
ATOM     10  C28 INB d   0      -7.427  -6.714  29.199  0.00  0.00     0.000 A 
ATOM     11  C26 INB d   0      -6.028  -6.588  29.108  0.00  0.00     0.000 A 
ATOM     12  C23 INB d   0      -5.421  -6.346  27.859  0.00  0.00     0.005 A 
ENDBRANCH   4   7
ENDBRANCH   1   3
BRANCH   1  13
ATOM     13  C2  INB d   0      -2.221  -7.194  24.348  0.00  0.00     0.289 C 
ATOM     14  O1  INB d   0      -1.074  -6.799  24.126  0.00  0.00    -0.264 OA
ATOM     15  N3  INB d   0      -2.485  -8.456  24.723  0.00  0.00    -0.241 N 
ATOM     16  H3  INB d   0      -3.443  -8.768  24.797  0.00  0.00     0.192 HD
BRANCH  15  17
ATOM     17  N2  INB d   0      -1.564  -9.330  25.180  0.00  0.00    -0.169 NA
ATOM     18  C14 INB d   0      -1.300  -9.255  26.436  0.00  0.00     0.120 C 
BRANCH  18  19
ATOM     19  C15 INB d   0      -0.922 -10.424  27.242  0.00  0.00     0.021 A 
ATOM     20  C18 INB d   0      -1.663 -10.718  28.405  0.00  0.00     0.002 A 
ATOM     21  C11 INB d   0      -1.328 -11.830  29.204  0.00  0.00     0.006 A 
ATOM     22  C6  INB d   0      -0.244 -12.668  28.852  0.00  0.00     0.064 A 
ATOM     23  C10 INB d   0       0.497 -12.369  27.687  0.00  0.00     0.006 A 
ATOM     24  C19 INB d   0       0.163 -11.258  26.887  0.00  0.00     0.002 A 
BRANCH  22  25
ATOM     25  C5  INB d   0       0.114 -13.854  29.706  0.00  0.00     0.211 C 
ATOM     26  O4  INB d   0       0.144 -13.716  30.949  0.00  0.00    -0.644 OA
ATOM     27  O3  INB d   0       0.370 -14.943  29.147  0.00  0.00    -0.644 OA
ENDBRANCH  22  25
ENDBRANCH  18  19
ENDBRANCH  15  17
ENDBRANCH   1  13
BRANCH   2  28
ATOM     28  C9  INB d   0      -2.659  -5.072  22.081  0.00  0.00     0.002 A 
ATOM     29  C17 INB d   0      -1.992  -3.835  22.194  0.00  0.00     0.002 A 
ATOM     30  C13 INB d   0      -1.122  -3.393  21.179  0.00  0.00     0.017 A 
ATOM     31  C7  INB d   0      -0.883  -4.179  20.023  0.00  0.00     0.056 A 
ATOM     32  C12 INB d   0      -1.535  -5.436  19.939  0.00  0.00     0.017 A 
ATOM     33  C16 INB d   0      -2.406  -5.876  20.955  0.00  0.00     0.002 A 
BRANCH  31  34
ATOM     34  N4  INB d   0      -0.061  -3.739  19.027  0.00  0.00    -0.348 N 
BRANCH  34  35
ATOM     35  C20 INB d   0       0.351  -2.341  18.872  0.00  0.00     0.102 C 
ATOM     36  C25 INB d   0       0.186  -1.843  17.430  0.00  0.00     0.026 C 
ENDBRANCH  34  35
BRANCH  34  37
ATOM     37  C21 INB d   0       0.485  -4.606  17.981  0.00  0.00     0.102 C 
ATOM     38  C24 INB d   0      -0.609  -5.143  17.046  0.00  0.00     0.026 C 
ENDBRANCH  34  37
ENDBRANCH  31  34
ENDBRANCH   2  28
TORSDOF 10
ENDMDL
MODEL 6
REMARK VINA RESULT:    -5.834      3.004      5.731
REMARK INTER + INTRA:         -10.927
REMARK INTER:                  -9.263
REMARK INTRA:                  -1.664
REMARK UNBOUND:                -1.682
REMARK  10 active torsions:
REMARK  status: ('A' for Active; 'I' for Inactive)
REMARK    1  A    between atoms: N1_18  and  C1_1 
REMARK    2  A    between atoms: C1_1  and  C2_3 
REMARK    3  A    between atoms: C4_2  and  C9_28 
REMARK       I    between atoms: C2_3  and  N3_4 
REMARK    4  A    between atoms: N3_4  and  N2_7 
REMARK    5  A    between atoms: C14_8  and  C15_9 
REMARK    6  A    between atoms: C6_12  and  C5_15 
REMARK       I    between atoms: C3_19  and  N1_18 
REMARK    7  A    between atoms: C8_22  and  C3_19 
REMARK    8  A    between atoms: C7_31  and  N4_34 
REMARK    9  A    between atoms: N4_34  and  C20_35 
REMARK   10  A    between atoms: N4_34  and  C21_37 
ROOT
ATOM      1  C1  INB d   0      -2.559  -8.242  24.681  0.00  0.00     0.117 C 
ATOM      2  C4  INB d   0      -1.900  -9.343  25.146  0.00  0.00     0.022 C 
ENDROOT
BRANCH   1   3
ATOM      3  N1  INB d   0      -2.081  -7.441  23.631  0.00  0.00    -0.317 N 
ATOM      4  C3  INB d   0      -1.571  -6.194  23.666  0.00  0.00     0.258 C 
ATOM      5  O2  INB d   0      -1.350  -5.547  24.690  0.00  0.00    -0.267 OA
ATOM      6  H1  INB d   0      -2.190  -7.851  22.714  0.00  0.00     0.169 HD
BRANCH   4   7
ATOM      7  C8  INB d   0      -1.367  -5.561  22.319  0.00  0.00     0.056 A 
ATOM      8  C22 INB d   0      -2.168  -5.956  21.224  0.00  0.00     0.005 A 
ATOM      9  C27 INB d   0      -1.999  -5.358  19.961  0.00  0.00     0.000 A 
ATOM     10  C28 INB d   0      -1.031  -4.353  19.780  0.00  0.00     0.000 A 
ATOM     11  C26 INB d   0      -0.235  -3.943  20.866  0.00  0.00     0.000 A 
ATOM     12  C23 INB d   0      -0.403  -4.541  22.131  0.00  0.00     0.005 A 
ENDBRANCH   4   7
ENDBRANCH   1   3
BRANCH   1  13
ATOM     13  C2  INB d   0      -3.849  -7.777  25.204  0.00  0.00     0.289 C 
ATOM     14  O1  INB d   0      -4.937  -8.076  24.708  0.00  0.00    -0.264 OA
ATOM     15  N3  INB d   0      -3.741  -6.936  26.246  0.00  0.00    -0.241 N 
ATOM     16  H3  INB d   0      -2.829  -6.637  26.559  0.00  0.00     0.192 HD
BRANCH  15  17
ATOM     17  N2  INB d   0      -4.766  -6.566  27.042  0.00  0.00    -0.169 NA
ATOM     18  C14 INB d   0      -4.860  -7.199  28.158  0.00  0.00     0.120 C 
BRANCH  18  19
ATOM     19  C15 INB d   0      -5.379  -6.577  29.384  0.00  0.00     0.021 A 
ATOM     20  C18 INB d   0      -6.732  -6.179  29.428  0.00  0.00     0.002 A 
ATOM     21  C11 INB d   0      -7.263  -5.578  30.586  0.00  0.00     0.006 A 
ATOM     22  C6  INB d   0      -6.450  -5.365  31.723  0.00  0.00     0.064 A 
ATOM     23  C10 INB d   0      -5.095  -5.764  31.676  0.00  0.00     0.006 A 
ATOM     24  C19 INB d   0      -4.562  -6.365  30.519  0.00  0.00     0.002 A 
BRANCH  22  25
ATOM     25  C5  INB d   0      -7.018  -4.722  32.960  0.00  0.00     0.211 C 
ATOM     26  O4  INB d   0      -8.027  -3.992  32.851  0.00  0.00    -0.644 OA
ATOM     27  O3  INB d   0      -6.464  -4.938  34.060  0.00  0.00    -0.644 OA
ENDBRANCH  22  25
ENDBRANCH  18  19
ENDBRANCH  15  17
ENDBRANCH   1  13
BRANCH   2  28
ATOM     28  C9  INB d   0      -2.139 -10.135  26.366  0.00  0.00     0.002 A 
ATOM     29  C17 INB d   0      -1.737  -9.679  27.638  0.00  0.00     0.002 A 
ATOM     30  C13 INB d   0      -1.930 -10.479  28.780  0.00  0.00     0.017 A 
ATOM     31  C7  INB d   0      -2.542 -11.755  28.689  0.00  0.00     0.056 A 
ATOM     32  C12 INB d   0      -2.972 -12.186  27.408  0.00  0.00     0.017 A 
ATOM     33  C16 INB d   0      -2.777 -11.385  26.266  0.00  0.00     0.002 A 
BRANCH  31  34
ATOM     34  N4  INB d   0      -2.705 -12.541  29.794  0.00  0.00    -0.348 N 
BRANCH  34  35
ATOM     35  C20 INB d   0      -1.632 -13.347  30.382  0.00  0.00     0.102 C 
ATOM     36  C25 INB d   0      -0.429 -13.488  29.440  0.00  0.00     0.026 C 
ENDBRANCH  34  35
BRANCH  34  37
ATOM     37  C21 INB d   0      -3.977 -12.691  30.503  0.00  0.00     0.102 C 
ATOM     38  C24 INB d   0      -3.873 -12.260  31.974  0.00  0.00     0.026 C 
ENDBRANCH  34  37
ENDBRANCH  31  34
ENDBRANCH   2  28
TORSDOF 10
ENDMDL
MODEL 7
REMARK VINA RESULT:    -5.828      3.962      8.227
REMARK INTER + INTRA:         -10.916
REMARK INTER:                  -9.666
REMARK INTRA:                  -1.251
REMARK UNBOUND:                -1.682
REMARK  10 active torsions:
REMARK  status: ('A' for Active; 'I' for Inactive)
REMARK    1  A    between atoms: N1_18  and  C1_1 
REMARK    2  A    between atoms: C1_1  and  C2_3 
REMARK    3  A    between atoms: C4_2  and  C9_28 
REMARK       I    between atoms: C2_3  and  N3_4 
REMARK    4  A    between atoms: N3_4  and  N2_7 
REMARK    5  A    between atoms: C14_8  and  C15_9 
REMARK    6  A    between atoms: C6_12  and  C5_15 
REMARK       I    between atoms: C3_19  and  N1_18 
REMARK    7  A    between atoms: C8_22  and  C3_19 
REMARK    8  A    between atoms: C7_31  and  N4_34 
REMARK    9  A    between atoms: N4_34  and  C20_35 
REMARK   10  A    between atoms: N4_34  and  C21_37 
ROOT
ATOM      1  C1  INB d   0      -2.459  -7.006  24.868  0.00  0.00     0.117 C 
ATOM      2  C4  INB d   0      -2.061  -6.930  23.564  0.00  0.00     0.022 C 
ENDROOT
BRANCH   1   3
ATOM      3  N1  INB d   0      -3.061  -8.144  25.426  0.00  0.00    -0.317 N 
ATOM      4  C3  INB d   0      -4.358  -8.375  25.713  0.00  0.00     0.258 C 
ATOM      5  O2  INB d   0      -5.290  -7.619  25.440  0.00  0.00    -0.267 OA
ATOM      6  H1  INB d   0      -2.410  -8.868  25.697  0.00  0.00     0.169 HD
BRANCH   4   7
ATOM      7  C8  INB d   0      -4.612  -9.623  26.511  0.00  0.00     0.056 A 
ATOM      8  C22 INB d   0      -3.942 -10.822  26.178  0.00  0.00     0.005 A 
ATOM      9  C27 INB d   0      -4.157 -11.994  26.930  0.00  0.00     0.000 A 
ATOM     10  C28 INB d   0      -5.039 -11.976  28.026  0.00  0.00     0.000 A 
ATOM     11  C26 INB d   0      -5.702 -10.785  28.375  0.00  0.00     0.000 A 
ATOM     12  C23 INB d   0      -5.488  -9.612  27.623  0.00  0.00     0.005 A 
ENDBRANCH   4   7
ENDBRANCH   1   3
BRANCH   1  13
ATOM     13  C2  INB d   0      -2.285  -5.923  25.842  0.00  0.00     0.289 C 
ATOM     14  O1  INB d   0      -2.750  -4.790  25.698  0.00  0.00    -0.264 OA
ATOM     15  N3  INB d   0      -1.515  -6.255  26.891  0.00  0.00    -0.241 N 
ATOM     16  H3  INB d   0      -1.070  -7.161  26.921  0.00  0.00     0.192 HD
BRANCH  15  17
ATOM     17  N2  INB d   0      -1.402  -5.527  28.021  0.00  0.00    -0.169 NA
ATOM     18  C14 INB d   0      -2.081  -5.952  29.027  0.00  0.00     0.120 C 
BRANCH  18  19
ATOM     19  C15 INB d   0      -1.632  -5.792  30.417  0.00  0.00     0.021 A 
ATOM     20  C18 INB d   0      -2.447  -6.283  31.458  0.00  0.00     0.002 A 
ATOM     21  C11 INB d   0      -2.049  -6.146  32.803  0.00  0.00     0.006 A 
ATOM     22  C6  INB d   0      -0.827  -5.515  33.130  0.00  0.00     0.064 A 
ATOM     23  C10 INB d   0      -0.014  -5.022  32.085  0.00  0.00     0.006 A 
ATOM     24  C19 INB d   0      -0.410  -5.159  30.740  0.00  0.00     0.002 A 
BRANCH  22  25
ATOM     25  C5  INB d   0      -0.403  -5.367  34.567  0.00  0.00     0.211 C 
ATOM     26  O4  INB d   0      -0.090  -6.392  35.211  0.00  0.00    -0.644 OA
ATOM     27  O3  INB d   0      -0.376  -4.224  35.073  0.00  0.00    -0.644 OA
ENDBRANCH  22  25
ENDBRANCH  18  19
ENDBRANCH  15  17
ENDBRANCH   1  13
BRANCH   2  28
ATOM     28  C9  INB d   0      -1.640  -5.756  22.778  0.00  0.00     0.002 A 
ATOM     29  C17 INB d   0      -0.380  -5.152  22.963  0.00  0.00     0.002 A 
ATOM     30  C13 INB d   0      -0.022  -4.000  22.238  0.00  0.00     0.017 A 
ATOM     31  C7  INB d   0      -0.909  -3.422  21.294  0.00  0.00     0.056 A 
ATOM     32  C12 INB d   0      -2.159  -4.060  21.093  0.00  0.00     0.017 A 
ATOM     33  C16 INB d   0      -2.516  -5.212  21.821  0.00  0.00     0.002 A 
BRANCH  31  34
ATOM     34  N4  INB d   0      -0.572  -2.290  20.609  0.00  0.00    -0.348 N 
BRANCH  34  35
ATOM     35  C20 INB d   0      -0.075  -2.292  19.232  0.00  0.00     0.102 C 
ATOM     36  C25 INB d   0       0.289  -3.702  18.748  0.00  0.00     0.026 C 
ENDBRANCH  34  35
BRANCH  34  37
ATOM     37  C21 INB d   0      -0.645  -0.944  21.181  0.00  0.00     0.102 C 
ATOM     38  C24 INB d   0      -1.809  -0.799  22.174  0.00  0.00     0.026 C 
ENDBRANCH  34  37
ENDBRANCH  31  34
ENDBRANCH   2  28
TORSDOF 10
ENDMDL
MODEL 8
REMARK VINA RESULT:    -5.717      3.092      8.556
REMARK INTER + INTRA:         -10.740
REMARK INTER:                  -9.094
REMARK INTRA:                  -1.646
REMARK UNBOUND:                -1.682
REMARK  10 active torsions:
REMARK  status: ('A' for Active; 'I' for Inactive)
REMARK    1  A    between atoms: N1_18  and  C1_1 
REMARK    2  A    between atoms: C1_1  and  C2_3 
REMARK    3  A    between atoms: C4_2  and  C9_28 
REMARK       I    between atoms: C2_3  and  N3_4 
REMARK    4  A    between atoms: N3_4  and  N2_7 
REMARK    5  A    between atoms: C14_8  and  C15_9 
REMARK    6  A    between atoms: C6_12  and  C5_15 
REMARK       I    between atoms: C3_19  and  N1_18 
REMARK    7  A    between atoms: C8_22  and  C3_19 
REMARK    8  A    between atoms: C7_31  and  N4_34 
REMARK    9  A    between atoms: N4_34  and  C20_35 
REMARK   10  A    between atoms: N4_34  and  C21_37 
ROOT
ATOM      1  C1  INB d   0      -6.530  -6.362  28.965  0.00  0.00     0.117 C 
ATOM      2  C4  INB d   0      -6.305  -5.563  27.881  0.00  0.00     0.022 C 
ENDROOT
BRANCH   1   3
ATOM      3  N1  INB d   0      -6.933  -5.869  30.216  0.00  0.00    -0.317 N 
ATOM      4  C3  INB d   0      -6.211  -5.692  31.341  0.00  0.00     0.258 C 
ATOM      5  O2  INB d   0      -4.996  -5.864  31.439  0.00  0.00    -0.267 OA
ATOM      6  H1  INB d   0      -7.921  -5.670  30.286  0.00  0.00     0.169 HD
BRANCH   4   7
ATOM      7  C8  INB d   0      -7.022  -5.351  32.560  0.00  0.00     0.056 A 
ATOM      8  C22 INB d   0      -6.532  -5.670  33.846  0.00  0.00     0.005 A 
ATOM      9  C27 INB d   0      -7.273  -5.340  34.997  0.00  0.00     0.000 A 
ATOM     10  C28 INB d   0      -8.510  -4.680  34.873  0.00  0.00     0.000 A 
ATOM     11  C26 INB d   0      -9.003  -4.346  33.598  0.00  0.00     0.000 A 
ATOM     12  C23 INB d   0      -8.262  -4.677  32.446  0.00  0.00     0.005 A 
ENDBRANCH   4   7
ENDBRANCH   1   3
BRANCH   1  13
ATOM     13  C2  INB d   0      -6.402  -7.823  28.948  0.00  0.00     0.289 C 
ATOM     14  O1  INB d   0      -7.363  -8.594  28.886  0.00  0.00    -0.264 OA
ATOM     15  N3  INB d   0      -5.138  -8.259  29.068  0.00  0.00    -0.241 N 
ATOM     16  H3  INB d   0      -4.390  -7.597  29.218  0.00  0.00     0.192 HD
BRANCH  15  17
ATOM     17  N2  INB d   0      -4.739  -9.528  28.843  0.00  0.00    -0.169 NA
ATOM     18  C14 INB d   0      -3.506  -9.672  28.509  0.00  0.00     0.120 C 
BRANCH  18  19
ATOM     19  C15 INB d   0      -2.716 -10.857  28.870  0.00  0.00     0.021 A 
ATOM     20  C18 INB d   0      -2.933 -11.466  30.124  0.00  0.00     0.002 A 
ATOM     21  C11 INB d   0      -2.192 -12.602  30.506  0.00  0.00     0.006 A 
ATOM     22  C6  INB d   0      -1.220 -13.151  29.638  0.00  0.00     0.064 A 
ATOM     23  C10 INB d   0      -1.003 -12.539  28.383  0.00  0.00     0.006 A 
ATOM     24  C19 INB d   0      -1.743 -11.403  28.000  0.00  0.00     0.002 A 
BRANCH  22  25
ATOM     25  C5  INB d   0      -0.428 -14.364  30.046  0.00  0.00     0.211 C 
ATOM     26  O4  INB d   0      -0.722 -14.945  31.114  0.00  0.00    -0.644 OA
ATOM     27  O3  INB d   0       0.499 -14.756  29.305  0.00  0.00    -0.644 OA
ENDBRANCH  22  25
ENDBRANCH  18  19
ENDBRANCH  15  17
ENDBRANCH   1  13
BRANCH   2  28
ATOM     28  C9  INB d   0      -5.666  -5.889  26.593  0.00  0.00     0.002 A 
ATOM     29  C17 INB d   0      -6.423  -6.229  25.453  0.00  0.00     0.002 A 
ATOM     30  C13 INB d   0      -5.786  -6.587  24.249  0.00  0.00     0.017 A 
ATOM     31  C7  INB d   0      -4.372  -6.605  24.143  0.00  0.00     0.056 A 
ATOM     32  C12 INB d   0      -3.624  -6.227  25.288  0.00  0.00     0.017 A 
ATOM     33  C16 INB d   0      -4.262  -5.870  26.491  0.00  0.00     0.002 A 
BRANCH  31  34
ATOM     34  N4  INB d   0      -3.755  -6.977  22.984  0.00  0.00    -0.348 N 
BRANCH  34  35
ATOM     35  C20 INB d   0      -2.814  -8.096  22.888  0.00  0.00     0.102 C 
ATOM     36  C25 INB d   0      -3.308  -9.336  23.646  0.00  0.00     0.026 C 
ENDBRANCH  34  35
BRANCH  34  37
ATOM     37  C21 INB d   0      -3.941  -6.286  21.707  0.00  0.00     0.102 C 
ATOM     38  C24 INB d   0      -2.617  -5.751  21.140  0.00  0.00     0.026 C 
ENDBRANCH  34  37
ENDBRANCH  31  34
ENDBRANCH   2  28
TORSDOF 10
ENDMDL
MODEL 9
REMARK VINA RESULT:    -5.687      3.998      9.378
REMARK INTER + INTRA:         -10.694
REMARK INTER:                  -9.423
REMARK INTRA:                  -1.271
REMARK UNBOUND:                -1.682
REMARK  10 active torsions:
REMARK  status: ('A' for Active; 'I' for Inactive)
REMARK    1  A    between atoms: N1_18  and  C1_1 
REMARK    2  A    between atoms: C1_1  and  C2_3 
REMARK    3  A    between atoms: C4_2  and  C9_28 
REMARK       I    between atoms: C2_3  and  N3_4 
REMARK    4  A    between atoms: N3_4  and  N2_7 
REMARK    5  A    between atoms: C14_8  and  C15_9 
REMARK    6  A    between atoms: C6_12  and  C5_15 
REMARK       I    between atoms: C3_19  and  N1_18 
REMARK    7  A    between atoms: C8_22  and  C3_19 
REMARK    8  A    between atoms: C7_31  and  N4_34 
REMARK    9  A    between atoms: N4_34  and  C20_35 
REMARK   10  A    between atoms: N4_34  and  C21_37 
ROOT
ATOM      1  C1  INB d   0      -1.544  -9.719  28.915  0.00  0.00     0.117 C 
ATOM      2  C4  INB d   0      -1.040  -9.226  27.746  0.00  0.00     0.022 C 
ENDROOT
BRANCH   1   3
ATOM      3  N1  INB d   0      -1.215 -10.985  29.424  0.00  0.00    -0.317 N 
ATOM      4  C3  INB d   0      -1.744 -12.191  29.134  0.00  0.00     0.258 C 
ATOM      5  O2  INB d   0      -2.591 -12.403  28.266  0.00  0.00    -0.267 OA
ATOM      6  H1  INB d   0      -0.514 -10.971  30.152  0.00  0.00     0.169 HD
BRANCH   4   7
ATOM      7  C8  INB d   0      -1.296 -13.306  30.036  0.00  0.00     0.056 A 
ATOM      8  C22 INB d   0      -2.106 -13.702  31.124  0.00  0.00     0.005 A 
ATOM      9  C27 INB d   0      -1.707 -14.758  31.966  0.00  0.00     0.000 A 
ATOM     10  C28 INB d   0      -0.496 -15.434  31.724  0.00  0.00     0.000 A 
ATOM     11  C26 INB d   0       0.312 -15.057  30.635  0.00  0.00     0.000 A 
ATOM     12  C23 INB d   0      -0.086 -14.000  29.793  0.00  0.00     0.005 A 
ENDBRANCH   4   7
ENDBRANCH   1   3
BRANCH   1  13
ATOM     13  C2  INB d   0      -2.466  -8.982  29.786  0.00  0.00     0.289 C 
ATOM     14  O1  INB d   0      -3.673  -8.861  29.560  0.00  0.00    -0.264 OA
ATOM     15  N3  INB d   0      -1.869  -8.391  30.834  0.00  0.00    -0.241 N 
ATOM     16  H3  INB d   0      -0.864  -8.431  30.927  0.00  0.00     0.192 HD
BRANCH  15  17
ATOM     17  N2  INB d   0      -2.520  -7.866  31.893  0.00  0.00    -0.169 NA
ATOM     18  C14 INB d   0      -2.681  -6.591  31.870  0.00  0.00     0.120 C 
BRANCH  18  19
ATOM     19  C15 INB d   0      -3.849  -5.925  32.464  0.00  0.00     0.021 A 
ATOM     20  C18 INB d   0      -5.047  -5.859  31.722  0.00  0.00     0.002 A 
ATOM     21  C11 INB d   0      -6.186  -5.226  32.258  0.00  0.00     0.006 A 
ATOM     22  C6  INB d   0      -6.147  -4.648  33.548  0.00  0.00     0.064 A 
ATOM     23  C10 INB d   0      -4.945  -4.714  34.288  0.00  0.00     0.006 A 
ATOM     24  C19 INB d   0      -3.805  -5.347  33.753  0.00  0.00     0.002 A 
BRANCH  22  25
ATOM     25  C5  INB d   0      -7.364  -3.972  34.120  0.00  0.00     0.211 C 
ATOM     26  O4  INB d   0      -8.147  -3.381  33.343  0.00  0.00    -0.644 OA
ATOM     27  O3  INB d   0      -7.557  -4.021  35.354  0.00  0.00    -0.644 OA
ENDBRANCH  22  25
ENDBRANCH  18  19
ENDBRANCH  15  17
ENDBRANCH   1  13
BRANCH   2  28
ATOM     28  C9  INB d   0      -1.455  -8.043  26.970  0.00  0.00     0.002 A 
ATOM     29  C17 INB d   0      -1.436  -6.747  27.524  0.00  0.00     0.002 A 
ATOM     30  C13 INB d   0      -1.888  -5.641  26.780  0.00  0.00     0.017 A 
ATOM     31  C7  INB d   0      -2.363  -5.794  25.452  0.00  0.00     0.056 A 
ATOM     32  C12 INB d   0      -2.344  -7.099  24.896  0.00  0.00     0.017 A 
ATOM     33  C16 INB d   0      -1.893  -8.204  25.643  0.00  0.00     0.002 A 
BRANCH  31  34
ATOM     34  N4  INB d   0      -2.826  -4.726  24.739  0.00  0.00    -0.348 N 
BRANCH  34  35
ATOM     35  C20 INB d   0      -4.025  -4.768  23.899  0.00  0.00     0.102 C 
ATOM     36  C25 INB d   0      -5.248  -5.299  24.659  0.00  0.00     0.026 C 
ENDBRANCH  34  35
BRANCH  34  37
ATOM     37  C21 INB d   0      -2.163  -3.420  24.711  0.00  0.00     0.102 C 
ATOM     38  C24 INB d   0      -2.981  -2.373  23.941  0.00  0.00     0.026 C 
ENDBRANCH  34  37
ENDBRANCH  31  34
ENDBRANCH   2  28
TORSDOF 10
ENDMDL
MODEL 10
REMARK VINA RESULT:    -5.586      2.732      3.760
REMARK INTER + INTRA:         -10.534
REMARK INTER:                  -8.538
REMARK INTRA:                  -1.995
REMARK UNBOUND:                -1.682
REMARK  10 active torsions:
REMARK  status: ('A' for Active; 'I' for Inactive)
REMARK    1  A    between atoms: N1_18  and  C1_1 
REMARK    2  A    between atoms: C1_1  and  C2_3 
REMARK    3  A    between atoms: C4_2  and  C9_28 
REMARK       I    between atoms: C2_3  and  N3_4 
REMARK    4  A    between atoms: N3_4  and  N2_7 
REMARK    5  A    between atoms: C14_8  and  C15_9 
REMARK    6  A    between atoms: C6_12  and  C5_15 
REMARK       I    between atoms: C3_19  and  N1_18 
REMARK    7  A    between atoms: C8_22  and  C3_19 
REMARK    8  A    between atoms: C7_31  and  N4_34 
REMARK    9  A    between atoms: N4_34  and  C20_35 
REMARK   10  A    between atoms: N4_34  and  C21_37 
ROOT
ATOM      1  C1  INB d   0      -1.314  -6.240  25.996  0.00  0.00     0.117 C 
ATOM      2  C4  INB d   0      -1.648  -5.417  27.032  0.00  0.00     0.022 C 
ENDROOT
BRANCH   1   3
ATOM      3  N1  INB d   0      -1.363  -5.846  24.649  0.00  0.00    -0.317 N 
ATOM      4  C3  INB d   0      -2.065  -6.372  23.626  0.00  0.00     0.258 C 
ATOM      5  O2  INB d   0      -2.889  -7.281  23.724  0.00  0.00    -0.267 OA
ATOM      6  H1  INB d   0      -0.735  -5.089  24.415  0.00  0.00     0.169 HD
BRANCH   4   7
ATOM      7  C8  INB d   0      -1.702  -5.830  22.272  0.00  0.00     0.056 A 
ATOM      8  C22 INB d   0      -2.476  -6.177  21.142  0.00  0.00     0.005 A 
ATOM      9  C27 INB d   0      -2.157  -5.662  19.871  0.00  0.00     0.000 A 
ATOM     10  C28 INB d   0      -1.065  -4.788  19.717  0.00  0.00     0.000 A 
ATOM     11  C26 INB d   0      -0.294  -4.426  20.837  0.00  0.00     0.000 A 
ATOM     12  C23 INB d   0      -0.612  -4.941  22.110  0.00  0.00     0.005 A 
ENDBRANCH   4   7
ENDBRANCH   1   3
BRANCH   1  13
ATOM     13  C2  INB d   0      -0.847  -7.621  26.163  0.00  0.00     0.289 C 
ATOM     14  O1  INB d   0       0.298  -7.994  25.894  0.00  0.00    -0.264 OA
ATOM     15  N3  INB d   0      -1.799  -8.470  26.583  0.00  0.00    -0.241 N 
ATOM     16  H3  INB d   0      -2.748  -8.144  26.696  0.00  0.00     0.192 HD
BRANCH  15  17
ATOM     17  N2  INB d   0      -1.568  -9.720  27.035  0.00  0.00    -0.169 NA
ATOM     18  C14 INB d   0      -0.965  -9.799  28.168  0.00  0.00     0.120 C 
BRANCH  18  19
ATOM     19  C15 INB d   0      -1.207 -10.888  29.124  0.00  0.00     0.021 A 
ATOM     20  C18 INB d   0      -2.512 -11.410  29.248  0.00  0.00     0.002 A 
ATOM     21  C11 INB d   0      -2.782 -12.453  30.156  0.00  0.00     0.006 A 
ATOM     22  C6  INB d   0      -1.750 -12.994  30.957  0.00  0.00     0.064 A 
ATOM     23  C10 INB d   0      -0.444 -12.468  30.832  0.00  0.00     0.006 A 
ATOM     24  C19 INB d   0      -0.173 -11.426  29.925  0.00  0.00     0.002 A 
BRANCH  22  25
ATOM     25  C5  INB d   0      -2.039 -14.107  31.928  0.00  0.00     0.211 C 
ATOM     26  O4  INB d   0      -1.863 -13.903  33.150  0.00  0.00    -0.644 OA
ATOM     27  O3  INB d   0      -2.447 -15.203  31.484  0.00  0.00    -0.644 OA
ENDBRANCH  22  25
ENDBRANCH  18  19
ENDBRANCH  15  17
ENDBRANCH   1  13
BRANCH   2  28
ATOM     28  C9  INB d   0      -1.873  -5.740  28.453  0.00  0.00     0.002 A 
ATOM     29  C17 INB d   0      -0.876  -5.537  29.428  0.00  0.00     0.002 A 
ATOM     30  C13 INB d   0      -1.098  -5.903  30.769  0.00  0.00     0.017 A 
ATOM     31  C7  INB d   0      -2.330  -6.473  31.180  0.00  0.00     0.056 A 
ATOM     32  C12 INB d   0      -3.336  -6.640  30.195  0.00  0.00     0.017 A 
ATOM     33  C16 INB d   0      -3.112  -6.274  28.853  0.00  0.00     0.002 A 
BRANCH  31  34
ATOM     34  N4  INB d   0      -2.535  -6.853  32.475  0.00  0.00    -0.348 N 
BRANCH  34  35
ATOM     35  C20 INB d   0      -1.767  -7.906  33.144  0.00  0.00     0.102 C 
ATOM     36  C25 INB d   0      -1.855  -9.248  32.403  0.00  0.00     0.026 C 
ENDBRANCH  34  35
BRANCH  34  37
ATOM     37  C21 INB d   0      -3.563  -6.269  33.339  0.00  0.00     0.102 C 
ATOM     38  C24 INB d   0      -3.238  -4.818  33.726  0.00  0.00     0.026 C 
ENDBRANCH  34  37
ENDBRANCH  31  34
ENDBRANCH   2  28
TORSDOF 10
ENDMDL
