REMARK  4 active torsions:
REMARK  status: ('A' for Active; 'I' for Inactive)
REMARK    1  A    between atoms: C1_1  and  N4_9 
REMARK    2  A    between atoms: C9_23  and  N2_4 
REMARK       I    between atoms: N4_9  and  C5_10 
REMARK    3  A    between atoms: C5_10  and  C7_13 
REMARK    4  A    between atoms: C4_15  and  N3_20 
ROOT
ATOM      1  C1  INB d   0     -52.030 -15.189  14.940  0.00  0.00     0.131 A 
ATOM      2  C2  INB d   0     -51.058 -14.859  13.914  0.00  0.00     0.296 A 
ATOM      3  N1  INB d   0     -53.007 -15.449  12.976  0.00  0.00    -0.265 N 
ATOM      4  N2  INB d   0     -51.697 -15.027  12.735  0.00  0.00    -0.213 N 
ATOM      5  C3  INB d   0     -53.180 -15.534  14.337  0.00  0.00     0.075 A 
ATOM      6  O1  INB d   0     -49.891 -14.501  14.077  0.00  0.00    -0.264 OA
ATOM      7  C12 INB d   0     -53.476 -16.477  12.049  0.00  0.00     0.152 C 
ATOM      8  C13 INB d   0     -54.481 -16.063  14.921  0.00  0.00     0.053 C 
ENDROOT
BRANCH   1   9
ATOM      9  N4  INB d   0     -51.678 -15.171  16.295  0.00  0.00    -0.317 N 
ATOM     10  H1  INB d   0     -52.313 -14.666  16.895  0.00  0.00     0.169 HD
ATOM     11  C5  INB d   0     -50.670 -15.829  16.896  0.00  0.00     0.258 C 
ATOM     12  O4  INB d   0     -49.807 -16.482  16.311  0.00  0.00    -0.267 OA
BRANCH  11  13
ATOM     13  C7  INB d   0     -50.634 -15.702  18.393  0.00  0.00     0.058 A 
ATOM     14  C6  INB d   0     -49.394 -15.587  19.057  0.00  0.00     0.029 A 
ATOM     15  C4  INB d   0     -49.326 -15.491  20.466  0.00  0.00     0.133 A 
ATOM     16  C8  INB d   0     -50.526 -15.504  21.219  0.00  0.00     0.057 A 
ATOM     17  C11 INB d   0     -51.763 -15.632  20.560  0.00  0.00     0.009 A 
ATOM     18 Br   INB d   0     -50.532 -15.315  23.118  0.00  0.00    -0.047 Br
ATOM     19  C10 INB d   0     -51.822 -15.738  19.158  0.00  0.00     0.005 A 
BRANCH  15  20
ATOM     20  N3  INB d   0     -48.007 -15.376  21.108  0.00  0.00    -0.113 N 
ATOM     21  O3  INB d   0     -47.340 -16.394  21.254  0.00  0.00    -0.532 OA
ATOM     22  O2  INB d   0     -47.631 -14.255  21.430  0.00  0.00    -0.532 OA
ENDBRANCH  15  20
ENDBRANCH  11  13
ENDBRANCH   1   9
BRANCH   4  23
ATOM     23  C9  INB d   0     -51.256 -14.550  11.465  0.00  0.00     0.084 A 
ATOM     24  C14 INB d   0     -51.142 -15.441  10.373  0.00  0.00     0.019 A 
ATOM     25  C16 INB d   0     -50.694 -14.979   9.120  0.00  0.00     0.002 A 
ATOM     26  C18 INB d   0     -50.352 -13.624   8.951  0.00  0.00     0.000 A 
ATOM     27  C17 INB d   0     -50.456 -12.731  10.034  0.00  0.00     0.002 A 
ATOM     28  C15 INB d   0     -50.905 -13.192  11.288  0.00  0.00     0.019 A 
ENDBRANCH   4  23
TORSDOF 4
