REMARK  3 active torsions:
REMARK  status: ('A' for Active; 'I' for Inactive)
REMARK    1  A    between atoms: C1_1  and  O2_2 
REMARK    2  A    between atoms: O2_2  and  C5_5 
REMARK    3  A    between atoms: C10_10  and  N13_13 
ROOT
ATOM      1  C1  UNK d   1       0.648  -0.805  -0.547  0.00  0.00     0.169 A 
ATOM      2  C3  UNK d   1       1.808  -1.567  -0.787  0.00  0.00     0.061 A 
ATOM      3  N4  UNK d   1       0.628   0.240   0.317  0.00  0.00    -0.234 NA
ATOM      4  C6  UNK d   1       2.992  -1.233  -0.103  0.00  0.00     0.042 A 
ATOM      5  C7  UNK d   1       1.768   0.554   0.969  0.00  0.00     0.155 A 
ATOM      6  C10 UNK d   1       2.985  -0.147   0.801  0.00  0.00     0.120 A 
ENDROOT
BRANCH   1   7
ATOM      7  O2  UNK d   1      -0.512  -1.131  -1.218  0.00  0.00    -0.292 OA
BRANCH   7   8
ATOM      8  C5  UNK d   1      -1.676  -0.450  -0.964  0.00  0.00     0.078 A 
ATOM      9  C8  UNK d   1      -2.534  -0.875   0.071  0.00  0.00     0.045 A 
ATOM     10  C11 UNK d   1      -3.736  -0.184   0.333  0.00  0.00    -0.038 A 
ATOM     11  C14 UNK d   1      -4.080   0.940  -0.455  0.00  0.00     0.040 A 
ATOM     12  C15 UNK d   1      -4.643  -0.653   1.455  0.00  0.00     0.050 C 
ATOM     13  C12 UNK d   1      -3.225   1.359  -1.494  0.00  0.00     0.027 A 
ATOM     14 Cl18 UNK d   1      -5.542   1.814  -0.167  0.00  0.00    -0.084 Cl
ATOM     15  C9  UNK d   1      -2.027   0.665  -1.750  0.00  0.00     0.039 A 
ENDBRANCH   7   8
ENDBRANCH   1   7
BRANCH   6  16
ATOM     16  N13 UNK d   1       4.199   0.242   1.541  0.00  0.00    -0.114 N 
ATOM     17  O16 UNK d   1       4.129   1.194   2.311  0.00  0.00    -0.532 OA
ATOM     18  O17 UNK d   1       5.224  -0.405   1.352  0.00  0.00    -0.532 OA
ENDBRANCH   6  16
TORSDOF 3
