REMARK  8 active torsions:
REMARK  status: ('A' for Active; 'I' for Inactive)
REMARK       I    between atoms: N3_2  and  C2_1 
REMARK    1  A    between atoms: C2_1  and  C8_5 
REMARK    2  A    between atoms: N2_18  and  N3_2 
REMARK    3  A    between atoms: C8_5  and  O3_6 
REMARK    4  A    between atoms: O3_6  and  C3_7 
REMARK    5  A    between atoms: N1_13  and  C1_8 
REMARK    6  A    between atoms: C10_10  and  C14_16 
REMARK    7  A    between atoms: C5_20  and  C7_19 
REMARK    8  A    between atoms: C6_21  and  O5_26 
ROOT
ATOM      1  C2  INB d   0     -50.480 -14.589  15.834  0.00  0.00     0.280 C 
ATOM      2  N3  INB d   0     -50.612 -15.478  14.835  0.00  0.00    -0.244 N 
ATOM      3  O4  INB d   0     -49.891 -13.515  15.716  0.00  0.00    -0.268 OA
ATOM      4  H2  INB d   0     -51.011 -16.390  15.015  0.00  0.00     0.192 HD
ENDROOT
BRANCH   1   5
ATOM      5  C8  INB d   0     -51.095 -14.972  17.182  0.00  0.00     0.237 C 
BRANCH   5   6
ATOM      6  O3  INB d   0     -50.343 -16.036  17.753  0.00  0.00    -0.319 OA
BRANCH   6   7
ATOM      7  C3  INB d   0     -49.649 -15.804  18.921  0.00  0.00     0.117 A 
ATOM      8  C1  INB d   0     -48.253 -15.554  18.837  0.00  0.00     0.148 A 
ATOM      9  C4  INB d   0     -47.510 -15.352  20.023  0.00  0.00     0.021 A 
ATOM     10  C10 INB d   0     -48.136 -15.386  21.284  0.00  0.00    -0.020 A 
ATOM     11  C11 INB d   0     -49.519 -15.631  21.366  0.00  0.00    -0.002 A 
ATOM     12  C9  INB d   0     -50.269 -15.841  20.194  0.00  0.00     0.026 A 
BRANCH   8  13
ATOM     13  N1  INB d   0     -47.556 -15.495  17.536  0.00  0.00    -0.112 N 
ATOM     14  O2  INB d   0     -47.607 -16.489  16.818  0.00  0.00    -0.532 OA
ATOM     15  O1  INB d   0     -46.942 -14.475  17.239  0.00  0.00    -0.532 OA
ENDBRANCH   8  13
BRANCH  10  16
ATOM     16  C14 INB d   0     -47.323 -15.168  22.546  0.00  0.00     0.026 C 
ATOM     17  C15 INB d   0     -46.492 -13.881  22.484  0.00  0.00     0.005 C 
ENDBRANCH  10  16
ENDBRANCH   6   7
ENDBRANCH   5   6
ENDBRANCH   1   5
BRANCH   2  18
ATOM     18  N2  INB d   0     -50.260 -15.240  13.555  0.00  0.00    -0.169 NA
ATOM     19  C7  INB d   0     -51.189 -15.371  12.678  0.00  0.00     0.122 C 
BRANCH  19  20
ATOM     20  C5  INB d   0     -51.065 -14.847  11.302  0.00  0.00     0.043 A 
ATOM     21  C12 INB d   0     -51.538 -15.601  10.200  0.00  0.00     0.004 A 
ATOM     22  C16 INB d   0     -51.423 -15.107   8.887  0.00  0.00     0.000 A 
ATOM     23  C17 INB d   0     -50.831 -13.852   8.657  0.00  0.00     0.002 A 
ATOM     24  C13 INB d   0     -50.358 -13.092   9.741  0.00  0.00     0.024 A 
ATOM     25  C6  INB d   0     -50.471 -13.581  11.059  0.00  0.00     0.091 A 
BRANCH  25  26
ATOM     26  O5  INB d   0     -49.994 -12.805  12.080  0.00  0.00    -0.359 OA
ATOM     27  H8  INB d   0     -49.643 -11.978  11.788  0.00  0.00     0.217 HD
ENDBRANCH  25  26
ENDBRANCH  19  20
ENDBRANCH   2  18
TORSDOF 8
