MODEL 1
REMARK VINA RESULT:    -7.439      0.000      0.000
REMARK INTER + INTRA:         -10.558
REMARK INTER:                  -9.613
REMARK INTRA:                  -0.945
REMARK UNBOUND:                -0.945
REMARK  5 active torsions:
REMARK  status: ('A' for Active; 'I' for Inactive)
REMARK    1  A    between atoms: C2_16  and  C1_1 
REMARK       I    between atoms: C1_1  and  N1_2 
REMARK       I    between atoms: C5_3  and  N1_2 
REMARK    2  A    between atoms: N1_2  and  C3_6 
REMARK    3  A    between atoms: C5_3  and  C14_25 
REMARK    4  A    between atoms: C6_10  and  N2_13 
REMARK    5  A    between atoms: C4_17  and  C8_22 
ROOT
ATOM      1  C1  INB d   0      -3.919  -4.748  24.387  0.00  0.00     0.267 C 
ATOM      2  N1  INB d   0      -3.259  -5.418  25.387  0.00  0.00    -0.246 N 
ATOM      3  C5  INB d   0      -1.942  -5.246  25.729  0.00  0.00     0.243 C 
ATOM      4  O1  INB d   0      -5.087  -5.010  24.082  0.00  0.00    -0.267 OA
ATOM      5  O4  INB d   0      -1.147  -4.530  25.115  0.00  0.00    -0.272 OA
ENDROOT
BRANCH   2   6
ATOM      6  C3  INB d   0      -3.973  -6.498  26.006  0.00  0.00     0.066 A 
ATOM      7  C10 INB d   0      -4.675  -6.236  27.201  0.00  0.00     0.019 A 
ATOM      8  C11 INB d   0      -5.388  -7.258  27.854  0.00  0.00     0.025 A 
ATOM      9  C6  INB d   0      -5.411  -8.567  27.325  0.00  0.00     0.126 A 
ATOM     10  C9  INB d   0      -4.704  -8.829  26.129  0.00  0.00     0.021 A 
ATOM     11  C7  INB d   0      -3.987  -7.811  25.465  0.00  0.00    -0.004 A 
ATOM     12  C15 INB d   0      -3.244  -8.159  24.188  0.00  0.00     0.033 C 
BRANCH   9  13
ATOM     13  N2  INB d   0      -6.159  -9.642  28.009  0.00  0.00    -0.114 N 
ATOM     14  O3  INB d   0      -5.891 -10.805  27.727  0.00  0.00    -0.532 OA
ATOM     15  O2  INB d   0      -7.014  -9.323  28.829  0.00  0.00    -0.532 OA
ENDBRANCH   9  13
ENDBRANCH   2   6
BRANCH   1  16
ATOM     16  C2  INB d   0      -3.237  -3.678  23.563  0.00  0.00     0.062 A 
ATOM     17  C4  INB d   0      -2.551  -3.924  22.330  0.00  0.00     0.069 A 
ATOM     18  C13 INB d   0      -2.012  -2.821  21.623  0.00  0.00     0.006 A 
ATOM     19  C18 INB d   0      -2.108  -1.512  22.126  0.00  0.00     0.000 A 
ATOM     20  C17 INB d   0      -2.749  -1.279  23.352  0.00  0.00     0.000 A 
ATOM     21  C12 INB d   0      -3.304  -2.357  24.063  0.00  0.00     0.005 A 
BRANCH  17  22
ATOM     22  C8  INB d   0      -2.355  -5.298  21.737  0.00  0.00     0.211 C 
ATOM     23  O6  INB d   0      -1.396  -5.993  22.144  0.00  0.00    -0.644 OA
ATOM     24  O5  INB d   0      -3.160  -5.723  20.882  0.00  0.00    -0.644 OA
ENDBRANCH  17  22
ENDBRANCH   1  16
BRANCH   3  25
ATOM     25  C14 INB d   0      -1.372  -6.077  26.902  0.00  0.00     0.089 C 
ATOM     26  C16 INB d   0      -1.168  -5.267  28.193  0.00  0.00     0.010 C 
ENDBRANCH   3  25
TORSDOF 5
ENDMDL
MODEL 2
REMARK VINA RESULT:    -7.255      2.276      6.886
REMARK INTER + INTRA:         -10.320
REMARK INTER:                  -9.463
REMARK INTRA:                  -0.857
REMARK UNBOUND:                -0.945
REMARK  5 active torsions:
REMARK  status: ('A' for Active; 'I' for Inactive)
REMARK    1  A    between atoms: C2_16  and  C1_1 
REMARK       I    between atoms: C1_1  and  N1_2 
REMARK       I    between atoms: C5_3  and  N1_2 
REMARK    2  A    between atoms: N1_2  and  C3_6 
REMARK    3  A    between atoms: C5_3  and  C14_25 
REMARK    4  A    between atoms: C6_10  and  N2_13 
REMARK    5  A    between atoms: C4_17  and  C8_22 
ROOT
ATOM      1  C1  INB d   0      -4.866  -7.619  25.780  0.00  0.00     0.267 C 
ATOM      2  N1  INB d   0      -3.829  -6.761  26.051  0.00  0.00    -0.246 N 
ATOM      3  C5  INB d   0      -3.353  -6.453  27.299  0.00  0.00     0.243 C 
ATOM      4  O1  INB d   0      -5.294  -7.790  24.634  0.00  0.00    -0.267 OA
ATOM      5  O4  INB d   0      -3.860  -6.836  28.356  0.00  0.00    -0.272 OA
ENDROOT
BRANCH   2   6
ATOM      6  C3  INB d   0      -3.320  -6.009  24.939  0.00  0.00     0.066 A 
ATOM      7  C10 INB d   0      -3.905  -4.757  24.656  0.00  0.00     0.019 A 
ATOM      8  C11 INB d   0      -3.450  -3.979  23.576  0.00  0.00     0.025 A 
ATOM      9  C6  INB d   0      -2.398  -4.440  22.753  0.00  0.00     0.126 A 
ATOM     10  C9  INB d   0      -1.815  -5.697  23.036  0.00  0.00     0.021 A 
ATOM     11  C7  INB d   0      -2.263  -6.484  24.118  0.00  0.00    -0.004 A 
ATOM     12  C15 INB d   0      -1.599  -7.827  24.365  0.00  0.00     0.033 C 
BRANCH   9  13
ATOM     13  N2  INB d   0      -1.918  -3.625  21.618  0.00  0.00    -0.114 N 
ATOM     14  O3  INB d   0      -1.288  -4.185  20.728  0.00  0.00    -0.532 OA
ATOM     15  O2  INB d   0      -2.173  -2.425  21.617  0.00  0.00    -0.532 OA
ENDBRANCH   9  13
ENDBRANCH   2   6
BRANCH   1  16
ATOM     16  C2  INB d   0      -5.582  -8.372  26.879  0.00  0.00     0.062 A 
ATOM     17  C4  INB d   0      -6.764  -7.904  27.540  0.00  0.00     0.069 A 
ATOM     18  C13 INB d   0      -7.374  -8.739  28.509  0.00  0.00     0.006 A 
ATOM     19  C18 INB d   0      -6.823  -9.985  28.851  0.00  0.00     0.000 A 
ATOM     20  C17 INB d   0      -5.645 -10.424  28.229  0.00  0.00     0.000 A 
ATOM     21  C12 INB d   0      -5.031  -9.619  27.254  0.00  0.00     0.005 A 
BRANCH  17  22
ATOM     22  C8  INB d   0      -7.400  -6.561  27.275  0.00  0.00     0.211 C 
ATOM     23  O6  INB d   0      -8.435  -6.519  26.572  0.00  0.00    -0.644 OA
ATOM     24  O5  INB d   0      -6.904  -5.532  27.780  0.00  0.00    -0.644 OA
ENDBRANCH  17  22
ENDBRANCH   1  16
BRANCH   3  25
ATOM     25  C14 INB d   0      -2.158  -5.478  27.411  0.00  0.00     0.089 C 
ATOM     26  C16 INB d   0      -1.407  -5.570  28.750  0.00  0.00     0.010 C 
ENDBRANCH   3  25
TORSDOF 5
ENDMDL
MODEL 3
REMARK VINA RESULT:    -6.836      1.878      3.138
REMARK INTER + INTRA:          -9.779
REMARK INTER:                  -8.940
REMARK INTRA:                  -0.839
REMARK UNBOUND:                -0.945
REMARK  5 active torsions:
REMARK  status: ('A' for Active; 'I' for Inactive)
REMARK    1  A    between atoms: C2_16  and  C1_1 
REMARK       I    between atoms: C1_1  and  N1_2 
REMARK       I    between atoms: C5_3  and  N1_2 
REMARK    2  A    between atoms: N1_2  and  C3_6 
REMARK    3  A    between atoms: C5_3  and  C14_25 
REMARK    4  A    between atoms: C6_10  and  N2_13 
REMARK    5  A    between atoms: C4_17  and  C8_22 
ROOT
ATOM      1  C1  INB d   0      -2.240  -5.613  24.088  0.00  0.00     0.267 C 
ATOM      2  N1  INB d   0      -3.435  -6.253  24.299  0.00  0.00    -0.246 N 
ATOM      3  C5  INB d   0      -4.678  -5.686  24.180  0.00  0.00     0.243 C 
ATOM      4  O1  INB d   0      -1.154  -6.166  24.290  0.00  0.00    -0.267 OA
ATOM      5  O4  INB d   0      -4.882  -4.490  23.958  0.00  0.00    -0.272 OA
ENDROOT
BRANCH   2   6
ATOM      6  C3  INB d   0      -3.358  -7.578  24.848  0.00  0.00     0.066 A 
ATOM      7  C10 INB d   0      -3.317  -8.669  23.955  0.00  0.00     0.019 A 
ATOM      8  C11 INB d   0      -3.245  -9.989  24.436  0.00  0.00     0.025 A 
ATOM      9  C6  INB d   0      -3.216 -10.245  25.825  0.00  0.00     0.126 A 
ATOM     10  C9  INB d   0      -3.260  -9.150  26.719  0.00  0.00     0.021 A 
ATOM     11  C7  INB d   0      -3.330  -7.823  26.246  0.00  0.00    -0.004 A 
ATOM     12  C15 INB d   0      -3.381  -6.692  27.258  0.00  0.00     0.033 C 
BRANCH   9  13
ATOM     13  N2  INB d   0      -3.141 -11.630  26.333  0.00  0.00    -0.114 N 
ATOM     14  O3  INB d   0      -4.152 -12.125  26.819  0.00  0.00    -0.532 OA
ATOM     15  O2  INB d   0      -2.071 -12.224  26.244  0.00  0.00    -0.532 OA
ENDBRANCH   9  13
ENDBRANCH   2   6
BRANCH   1  16
ATOM     16  C2  INB d   0      -2.180  -4.169  23.639  0.00  0.00     0.062 A 
ATOM     17  C4  INB d   0      -2.155  -3.751  22.269  0.00  0.00     0.069 A 
ATOM     18  C13 INB d   0      -2.166  -2.363  21.985  0.00  0.00     0.006 A 
ATOM     19  C18 INB d   0      -2.165  -1.405  23.013  0.00  0.00     0.000 A 
ATOM     20  C17 INB d   0      -2.153  -1.819  24.353  0.00  0.00     0.000 A 
ATOM     21  C12 INB d   0      -2.158  -3.191  24.659  0.00  0.00     0.005 A 
BRANCH  17  22
ATOM     22  C8  INB d   0      -2.104  -4.704  21.099  0.00  0.00     0.211 C 
ATOM     23  O6  INB d   0      -1.044  -4.782  20.439  0.00  0.00    -0.644 OA
ATOM     24  O5  INB d   0      -3.100  -5.409  20.834  0.00  0.00    -0.644 OA
ENDBRANCH  17  22
ENDBRANCH   1  16
BRANCH   3  25
ATOM     25  C14 INB d   0      -5.919  -6.571  24.438  0.00  0.00     0.089 C 
ATOM     26  C16 INB d   0      -6.730  -6.154  25.676  0.00  0.00     0.010 C 
ENDBRANCH   3  25
TORSDOF 5
ENDMDL
MODEL 4
REMARK VINA RESULT:    -6.833      1.280      2.320
REMARK INTER + INTRA:          -9.775
REMARK INTER:                  -9.034
REMARK INTRA:                  -0.741
REMARK UNBOUND:                -0.945
REMARK  5 active torsions:
REMARK  status: ('A' for Active; 'I' for Inactive)
REMARK    1  A    between atoms: C2_16  and  C1_1 
REMARK       I    between atoms: C1_1  and  N1_2 
REMARK       I    between atoms: C5_3  and  N1_2 
REMARK    2  A    between atoms: N1_2  and  C3_6 
REMARK    3  A    between atoms: C5_3  and  C14_25 
REMARK    4  A    between atoms: C6_10  and  N2_13 
REMARK    5  A    between atoms: C4_17  and  C8_22 
ROOT
ATOM      1  C1  INB d   0      -3.716  -5.713  23.615  0.00  0.00     0.267 C 
ATOM      2  N1  INB d   0      -3.168  -6.206  24.773  0.00  0.00    -0.246 N 
ATOM      3  C5  INB d   0      -1.829  -6.262  25.063  0.00  0.00     0.243 C 
ATOM      4  O1  INB d   0      -4.929  -5.766  23.389  0.00  0.00    -0.267 OA
ATOM      5  O4  INB d   0      -0.929  -5.962  24.274  0.00  0.00    -0.272 OA
ENDROOT
BRANCH   2   6
ATOM      6  C3  INB d   0      -4.072  -6.862  25.674  0.00  0.00     0.066 A 
ATOM      7  C10 INB d   0      -4.742  -6.077  26.637  0.00  0.00     0.019 A 
ATOM      8  C11 INB d   0      -5.636  -6.667  27.549  0.00  0.00     0.025 A 
ATOM      9  C6  INB d   0      -5.877  -8.059  27.518  0.00  0.00     0.126 A 
ATOM     10  C9  INB d   0      -5.203  -8.844  26.555  0.00  0.00     0.021 A 
ATOM     11  C7  INB d   0      -4.306  -8.262  25.635  0.00  0.00    -0.004 A 
ATOM     12  C15 INB d   0      -3.609  -9.162  24.630  0.00  0.00     0.033 C 
BRANCH   9  13
ATOM     13  N2  INB d   0      -6.815  -8.681  28.475  0.00  0.00    -0.114 N 
ATOM     14  O3  INB d   0      -6.599  -9.833  28.833  0.00  0.00    -0.532 OA
ATOM     15  O2  INB d   0      -7.768  -8.016  28.869  0.00  0.00    -0.532 OA
ENDBRANCH   9  13
ENDBRANCH   2   6
BRANCH   1  16
ATOM     16  C2  INB d   0      -2.858  -5.117  22.521  0.00  0.00     0.062 A 
ATOM     17  C4  INB d   0      -2.264  -3.815  22.581  0.00  0.00     0.069 A 
ATOM     18  C13 INB d   0      -1.426  -3.403  21.515  0.00  0.00     0.006 A 
ATOM     19  C18 INB d   0      -1.202  -4.228  20.399  0.00  0.00     0.000 A 
ATOM     20  C17 INB d   0      -1.815  -5.488  20.328  0.00  0.00     0.000 A 
ATOM     21  C12 INB d   0      -2.637  -5.923  21.381  0.00  0.00     0.005 A 
BRANCH  17  22
ATOM     22  C8  INB d   0      -2.486  -2.840  23.712  0.00  0.00     0.211 C 
ATOM     23  O6  INB d   0      -3.547  -2.178  23.730  0.00  0.00    -0.644 OA
ATOM     24  O5  INB d   0      -1.629  -2.736  24.615  0.00  0.00    -0.644 OA
ENDBRANCH  17  22
ENDBRANCH   1  16
BRANCH   3  25
ATOM     25  C14 INB d   0      -1.395  -6.833  26.432  0.00  0.00     0.089 C 
ATOM     26  C16 INB d   0      -1.115  -5.755  27.493  0.00  0.00     0.010 C 
ENDBRANCH   3  25
TORSDOF 5
ENDMDL
MODEL 5
REMARK VINA RESULT:    -6.759      2.084      6.553
REMARK INTER + INTRA:          -9.679
REMARK INTER:                  -8.949
REMARK INTRA:                  -0.730
REMARK UNBOUND:                -0.945
REMARK  5 active torsions:
REMARK  status: ('A' for Active; 'I' for Inactive)
REMARK    1  A    between atoms: C2_16  and  C1_1 
REMARK       I    between atoms: C1_1  and  N1_2 
REMARK       I    between atoms: C5_3  and  N1_2 
REMARK    2  A    between atoms: N1_2  and  C3_6 
REMARK    3  A    between atoms: C5_3  and  C14_25 
REMARK    4  A    between atoms: C6_10  and  N2_13 
REMARK    5  A    between atoms: C4_17  and  C8_22 
ROOT
ATOM      1  C1  INB d   0      -5.064  -6.774  25.394  0.00  0.00     0.267 C 
ATOM      2  N1  INB d   0      -3.846  -6.171  25.584  0.00  0.00    -0.246 N 
ATOM      3  C5  INB d   0      -3.295  -5.848  26.797  0.00  0.00     0.243 C 
ATOM      4  O1  INB d   0      -5.533  -6.965  24.267  0.00  0.00    -0.267 OA
ATOM      5  O4  INB d   0      -3.869  -5.972  27.882  0.00  0.00    -0.272 OA
ENDROOT
BRANCH   2   6
ATOM      6  C3  INB d   0      -3.180  -5.699  24.403  0.00  0.00     0.066 A 
ATOM      7  C10 INB d   0      -3.437  -4.379  23.974  0.00  0.00     0.019 A 
ATOM      8  C11 INB d   0      -2.816  -3.865  22.821  0.00  0.00     0.025 A 
ATOM      9  C6  INB d   0      -1.926  -4.663  22.070  0.00  0.00     0.126 A 
ATOM     10  C9  INB d   0      -1.672  -5.987  22.499  0.00  0.00     0.021 A 
ATOM     11  C7  INB d   0      -2.288  -6.511  23.655  0.00  0.00    -0.004 A 
ATOM     12  C15 INB d   0      -1.978  -7.942  24.058  0.00  0.00     0.033 C 
BRANCH   9  13
ATOM     13  N2  INB d   0      -1.273  -4.126  20.858  0.00  0.00    -0.114 N 
ATOM     14  O3  INB d   0      -1.011  -4.903  19.947  0.00  0.00    -0.532 OA
ATOM     15  O2  INB d   0      -1.022  -2.926  20.818  0.00  0.00    -0.532 OA
ENDBRANCH   9  13
ENDBRANCH   2   6
BRANCH   1  16
ATOM     16  C2  INB d   0      -5.931  -7.198  26.559  0.00  0.00     0.062 A 
ATOM     17  C4  INB d   0      -5.752  -8.413  27.297  0.00  0.00     0.069 A 
ATOM     18  C13 INB d   0      -6.594  -8.659  28.410  0.00  0.00     0.006 A 
ATOM     19  C18 INB d   0      -7.609  -7.758  28.773  0.00  0.00     0.000 A 
ATOM     20  C17 INB d   0      -7.804  -6.587  28.027  0.00  0.00     0.000 A 
ATOM     21  C12 INB d   0      -6.972  -6.315  26.927  0.00  0.00     0.005 A 
BRANCH  17  22
ATOM     22  C8  INB d   0      -4.723  -9.463  26.953  0.00  0.00     0.211 C 
ATOM     23  O6  INB d   0      -3.512  -9.179  27.091  0.00  0.00    -0.644 OA
ATOM     24  O5  INB d   0      -5.096 -10.591  26.569  0.00  0.00    -0.644 OA
ENDBRANCH  17  22
ENDBRANCH   1  16
BRANCH   3  25
ATOM     25  C14 INB d   0      -1.896  -5.189  26.818  0.00  0.00     0.089 C 
ATOM     26  C16 INB d   0      -1.173  -5.313  28.170  0.00  0.00     0.010 C 
ENDBRANCH   3  25
TORSDOF 5
ENDMDL
MODEL 6
REMARK VINA RESULT:    -6.575      3.840      7.666
REMARK INTER + INTRA:          -9.442
REMARK INTER:                  -8.465
REMARK INTRA:                  -0.978
REMARK UNBOUND:                -0.945
REMARK  5 active torsions:
REMARK  status: ('A' for Active; 'I' for Inactive)
REMARK    1  A    between atoms: C2_16  and  C1_1 
REMARK       I    between atoms: C1_1  and  N1_2 
REMARK       I    between atoms: C5_3  and  N1_2 
REMARK    2  A    between atoms: N1_2  and  C3_6 
REMARK    3  A    between atoms: C5_3  and  C14_25 
REMARK    4  A    between atoms: C6_10  and  N2_13 
REMARK    5  A    between atoms: C4_17  and  C8_22 
ROOT
ATOM      1  C1  INB d   0      -3.793 -10.817  28.072  0.00  0.00     0.267 C 
ATOM      2  N1  INB d   0      -3.434  -9.493  28.116  0.00  0.00    -0.246 N 
ATOM      3  C5  INB d   0      -2.583  -8.926  29.030  0.00  0.00     0.243 C 
ATOM      4  O1  INB d   0      -4.626 -11.245  27.267  0.00  0.00    -0.267 OA
ATOM      5  O4  INB d   0      -2.101  -9.517  29.999  0.00  0.00    -0.272 OA
ENDROOT
BRANCH   2   6
ATOM      6  C3  INB d   0      -4.140  -8.614  27.227  0.00  0.00     0.066 A 
ATOM      7  C10 INB d   0      -5.330  -8.013  27.690  0.00  0.00     0.019 A 
ATOM      8  C11 INB d   0      -6.066  -7.147  26.861  0.00  0.00     0.025 A 
ATOM      9  C6  INB d   0      -5.627  -6.866  25.548  0.00  0.00     0.126 A 
ATOM     10  C9  INB d   0      -4.436  -7.471  25.085  0.00  0.00     0.021 A 
ATOM     11  C7  INB d   0      -3.690  -8.340  25.909  0.00  0.00    -0.004 A 
ATOM     12  C15 INB d   0      -2.423  -8.963  25.350  0.00  0.00     0.033 C 
BRANCH   9  13
ATOM     13  N2  INB d   0      -6.399  -5.956  24.676  0.00  0.00    -0.114 N 
ATOM     14  O3  INB d   0      -5.901  -4.875  24.381  0.00  0.00    -0.532 OA
ATOM     15  O2  INB d   0      -7.502  -6.325  24.285  0.00  0.00    -0.532 OA
ENDBRANCH   9  13
ENDBRANCH   2   6
BRANCH   1  16
ATOM     16  C2  INB d   0      -3.224 -11.827  29.044  0.00  0.00     0.062 A 
ATOM     17  C4  INB d   0      -1.959 -12.480  28.880  0.00  0.00     0.069 A 
ATOM     18  C13 INB d   0      -1.513 -13.357  29.900  0.00  0.00     0.006 A 
ATOM     19  C18 INB d   0      -2.298 -13.619  31.036  0.00  0.00     0.000 A 
ATOM     20  C17 INB d   0      -3.552 -13.006  31.175  0.00  0.00     0.000 A 
ATOM     21  C12 INB d   0      -4.008 -12.120  30.183  0.00  0.00     0.005 A 
BRANCH  17  22
ATOM     22  C8  INB d   0      -1.069 -12.300  27.674  0.00  0.00     0.211 C 
ATOM     23  O6  INB d   0      -0.238 -11.364  27.680  0.00  0.00    -0.644 OA
ATOM     24  O5  INB d   0      -1.158 -13.097  26.717  0.00  0.00    -0.644 OA
ENDBRANCH  17  22
ENDBRANCH   1  16
BRANCH   3  25
ATOM     25  C14 INB d   0      -2.277  -7.415  28.910  0.00  0.00     0.089 C 
ATOM     26  C16 INB d   0      -2.765  -6.587  30.111  0.00  0.00     0.010 C 
ENDBRANCH   3  25
TORSDOF 5
ENDMDL
MODEL 7
REMARK VINA RESULT:    -6.515      2.738      7.584
REMARK INTER + INTRA:          -9.365
REMARK INTER:                  -8.565
REMARK INTRA:                  -0.799
REMARK UNBOUND:                -0.945
REMARK  5 active torsions:
REMARK  status: ('A' for Active; 'I' for Inactive)
REMARK    1  A    between atoms: C2_16  and  C1_1 
REMARK       I    between atoms: C1_1  and  N1_2 
REMARK       I    between atoms: C5_3  and  N1_2 
REMARK    2  A    between atoms: N1_2  and  C3_6 
REMARK    3  A    between atoms: C5_3  and  C14_25 
REMARK    4  A    between atoms: C6_10  and  N2_13 
REMARK    5  A    between atoms: C4_17  and  C8_22 
ROOT
ATOM      1  C1  INB d   0      -2.973  -9.181  27.559  0.00  0.00     0.267 C 
ATOM      2  N1  INB d   0      -3.886  -8.194  27.287  0.00  0.00    -0.246 N 
ATOM      3  C5  INB d   0      -5.056  -7.978  27.969  0.00  0.00     0.243 C 
ATOM      4  O1  INB d   0      -1.976  -9.366  26.853  0.00  0.00    -0.267 OA
ATOM      5  O4  INB d   0      -5.491  -8.709  28.862  0.00  0.00    -0.272 OA
ENDROOT
BRANCH   2   6
ATOM      6  C3  INB d   0      -3.664  -7.436  26.088  0.00  0.00     0.066 A 
ATOM      7  C10 INB d   0      -4.154  -7.955  24.870  0.00  0.00     0.019 A 
ATOM      8  C11 INB d   0      -3.961  -7.258  23.664  0.00  0.00     0.025 A 
ATOM      9  C6  INB d   0      -3.270  -6.026  23.650  0.00  0.00     0.126 A 
ATOM     10  C9  INB d   0      -2.777  -5.509  24.870  0.00  0.00     0.021 A 
ATOM     11  C7  INB d   0      -2.967  -6.199  26.086  0.00  0.00    -0.004 A 
ATOM     12  C15 INB d   0      -2.408  -5.594  27.361  0.00  0.00     0.033 C 
BRANCH   9  13
ATOM     13  N2  INB d   0      -3.066  -5.292  22.384  0.00  0.00    -0.114 N 
ATOM     14  O3  INB d   0      -3.202  -5.904  21.330  0.00  0.00    -0.532 OA
ATOM     15  O2  INB d   0      -2.771  -4.103  22.443  0.00  0.00    -0.532 OA
ENDBRANCH   9  13
ENDBRANCH   2   6
BRANCH   1  16
ATOM     16  C2  INB d   0      -3.159 -10.138  28.716  0.00  0.00     0.062 A 
ATOM     17  C4  INB d   0      -3.922 -11.349  28.646  0.00  0.00     0.069 A 
ATOM     18  C13 INB d   0      -3.961 -12.191  29.786  0.00  0.00     0.006 A 
ATOM     19  C18 INB d   0      -3.301 -11.842  30.977  0.00  0.00     0.000 A 
ATOM     20  C17 INB d   0      -2.586 -10.638  31.052  0.00  0.00     0.000 A 
ATOM     21  C12 INB d   0      -2.520  -9.795  29.930  0.00  0.00     0.005 A 
BRANCH  17  22
ATOM     22  C8  INB d   0      -4.702 -11.783  27.430  0.00  0.00     0.211 C 
ATOM     23  O6  INB d   0      -4.072 -12.220  26.441  0.00  0.00    -0.644 OA
ATOM     24  O5  INB d   0      -5.950 -11.725  27.443  0.00  0.00    -0.644 OA
ENDBRANCH  17  22
ENDBRANCH   1  16
BRANCH   3  25
ATOM     25  C14 INB d   0      -5.955  -6.798  27.532  0.00  0.00     0.089 C 
ATOM     26  C16 INB d   0      -6.901  -6.298  28.637  0.00  0.00     0.010 C 
ENDBRANCH   3  25
TORSDOF 5
ENDMDL
MODEL 8
REMARK VINA RESULT:    -6.474      2.725      7.466
REMARK INTER + INTRA:          -9.311
REMARK INTER:                  -8.378
REMARK INTRA:                  -0.933
REMARK UNBOUND:                -0.945
REMARK  5 active torsions:
REMARK  status: ('A' for Active; 'I' for Inactive)
REMARK    1  A    between atoms: C2_16  and  C1_1 
REMARK       I    between atoms: C1_1  and  N1_2 
REMARK       I    between atoms: C5_3  and  N1_2 
REMARK    2  A    between atoms: N1_2  and  C3_6 
REMARK    3  A    between atoms: C5_3  and  C14_25 
REMARK    4  A    between atoms: C6_10  and  N2_13 
REMARK    5  A    between atoms: C4_17  and  C8_22 
ROOT
ATOM      1  C1  INB d   0      -3.194  -8.795  26.118  0.00  0.00     0.267 C 
ATOM      2  N1  INB d   0      -4.060  -7.759  25.873  0.00  0.00    -0.246 N 
ATOM      3  C5  INB d   0      -5.323  -7.634  26.393  0.00  0.00     0.243 C 
ATOM      4  O1  INB d   0      -2.099  -8.882  25.553  0.00  0.00    -0.267 OA
ATOM      5  O4  INB d   0      -5.886  -8.492  27.078  0.00  0.00    -0.272 OA
ENDROOT
BRANCH   2   6
ATOM      6  C3  INB d   0      -3.660  -6.823  24.862  0.00  0.00     0.066 A 
ATOM      7  C10 INB d   0      -4.002  -7.101  23.521  0.00  0.00     0.019 A 
ATOM      8  C11 INB d   0      -3.632  -6.220  22.488  0.00  0.00     0.025 A 
ATOM      9  C6  INB d   0      -2.908  -5.042  22.775  0.00  0.00     0.126 A 
ATOM     10  C9  INB d   0      -2.563  -4.767  24.118  0.00  0.00     0.021 A 
ATOM     11  C7  INB d   0      -2.931  -5.642  25.162  0.00  0.00    -0.004 A 
ATOM     12  C15 INB d   0      -2.525  -5.291  26.582  0.00  0.00     0.033 C 
BRANCH   9  13
ATOM     13  N2  INB d   0      -2.518  -4.117  21.692  0.00  0.00    -0.114 N 
ATOM     14  O3  INB d   0      -2.285  -2.949  21.983  0.00  0.00    -0.532 OA
ATOM     15  O2  INB d   0      -2.443  -4.558  20.550  0.00  0.00    -0.532 OA
ENDBRANCH   9  13
ENDBRANCH   2   6
BRANCH   1  16
ATOM     16  C2  INB d   0      -3.550  -9.923  27.061  0.00  0.00     0.062 A 
ATOM     17  C4  INB d   0      -3.375  -9.871  28.482  0.00  0.00     0.069 A 
ATOM     18  C13 INB d   0      -3.812 -10.973  29.259  0.00  0.00     0.006 A 
ATOM     19  C18 INB d   0      -4.373 -12.114  28.660  0.00  0.00     0.000 A 
ATOM     20  C17 INB d   0      -4.509 -12.175  27.265  0.00  0.00     0.000 A 
ATOM     21  C12 INB d   0      -4.097 -11.088  26.476  0.00  0.00     0.005 A 
BRANCH  17  22
ATOM     22  C8  INB d   0      -2.739  -8.712  29.210  0.00  0.00     0.211 C 
ATOM     23  O6  INB d   0      -1.511  -8.757  29.446  0.00  0.00    -0.644 OA
ATOM     24  O5  INB d   0      -3.436  -7.727  29.533  0.00  0.00    -0.644 OA
ENDBRANCH  17  22
ENDBRANCH   1  16
BRANCH   3  25
ATOM     25  C14 INB d   0      -6.151  -6.383  26.021  0.00  0.00     0.089 C 
ATOM     26  C16 INB d   0      -6.978  -5.818  27.188  0.00  0.00     0.010 C 
ENDBRANCH   3  25
TORSDOF 5
ENDMDL
MODEL 9
REMARK VINA RESULT:    -6.460      2.944      7.199
REMARK INTER + INTRA:          -9.293
REMARK INTER:                  -8.400
REMARK INTRA:                  -0.893
REMARK UNBOUND:                -0.945
REMARK  5 active torsions:
REMARK  status: ('A' for Active; 'I' for Inactive)
REMARK    1  A    between atoms: C2_16  and  C1_1 
REMARK       I    between atoms: C1_1  and  N1_2 
REMARK       I    between atoms: C5_3  and  N1_2 
REMARK    2  A    between atoms: N1_2  and  C3_6 
REMARK    3  A    between atoms: C5_3  and  C14_25 
REMARK    4  A    between atoms: C6_10  and  N2_13 
REMARK    5  A    between atoms: C4_17  and  C8_22 
ROOT
ATOM      1  C1  INB d   0      -2.275  -8.200  25.210  0.00  0.00     0.267 C 
ATOM      2  N1  INB d   0      -3.260  -7.358  24.756  0.00  0.00    -0.246 N 
ATOM      3  C5  INB d   0      -4.607  -7.530  24.945  0.00  0.00     0.243 C 
ATOM      4  O1  INB d   0      -1.084  -8.024  24.936  0.00  0.00    -0.267 OA
ATOM      5  O4  INB d   0      -5.120  -8.522  25.469  0.00  0.00    -0.272 OA
ENDROOT
BRANCH   2   6
ATOM      6  C3  INB d   0      -2.839  -6.306  23.876  0.00  0.00     0.066 A 
ATOM      7  C10 INB d   0      -2.826  -6.561  22.488  0.00  0.00     0.019 A 
ATOM      8  C11 INB d   0      -2.419  -5.568  21.578  0.00  0.00     0.025 A 
ATOM      9  C6  INB d   0      -2.011  -4.297  22.040  0.00  0.00     0.126 A 
ATOM     10  C9  INB d   0      -2.021  -4.044  23.431  0.00  0.00     0.021 A 
ATOM     11  C7  INB d   0      -2.430  -5.032  24.351  0.00  0.00    -0.004 A 
ATOM     12  C15 INB d   0      -2.411  -4.699  25.832  0.00  0.00     0.033 C 
BRANCH   9  13
ATOM     13  N2  INB d   0      -1.582  -3.253  21.087  0.00  0.00    -0.114 N 
ATOM     14  O3  INB d   0      -1.937  -2.098  21.294  0.00  0.00    -0.532 OA
ATOM     15  O2  INB d   0      -0.889  -3.588  20.132  0.00  0.00    -0.532 OA
ENDBRANCH   9  13
ENDBRANCH   2   6
BRANCH   1  16
ATOM     16  C2  INB d   0      -2.597  -9.426  26.036  0.00  0.00     0.062 A 
ATOM     17  C4  INB d   0      -2.752 -10.744  25.496  0.00  0.00     0.069 A 
ATOM     18  C13 INB d   0      -2.987 -11.818  26.390  0.00  0.00     0.006 A 
ATOM     19  C18 INB d   0      -3.106 -11.606  27.774  0.00  0.00     0.000 A 
ATOM     20  C17 INB d   0      -2.990 -10.309  28.295  0.00  0.00     0.000 A 
ATOM     21  C12 INB d   0      -2.741  -9.230  27.429  0.00  0.00     0.005 A 
BRANCH  17  22
ATOM     22  C8  INB d   0      -2.690 -11.062  24.022  0.00  0.00     0.211 C 
ATOM     23  O6  INB d   0      -1.780 -11.817  23.612  0.00  0.00    -0.644 OA
ATOM     24  O5  INB d   0      -3.556 -10.596  23.253  0.00  0.00    -0.644 OA
ENDBRANCH  17  22
ENDBRANCH   1  16
BRANCH   3  25
ATOM     25  C14 INB d   0      -5.571  -6.463  24.377  0.00  0.00     0.089 C 
ATOM     26  C16 INB d   0      -6.416  -5.757  25.451  0.00  0.00     0.010 C 
ENDBRANCH   3  25
TORSDOF 5
ENDMDL
MODEL 10
REMARK VINA RESULT:    -6.242      1.929      3.453
REMARK INTER + INTRA:          -9.012
REMARK INTER:                  -8.073
REMARK INTRA:                  -0.938
REMARK UNBOUND:                -0.945
REMARK  5 active torsions:
REMARK  status: ('A' for Active; 'I' for Inactive)
REMARK    1  A    between atoms: C2_16  and  C1_1 
REMARK       I    between atoms: C1_1  and  N1_2 
REMARK       I    between atoms: C5_3  and  N1_2 
REMARK    2  A    between atoms: N1_2  and  C3_6 
REMARK    3  A    between atoms: C5_3  and  C14_25 
REMARK    4  A    between atoms: C6_10  and  N2_13 
REMARK    5  A    between atoms: C4_17  and  C8_22 
ROOT
ATOM      1  C1  INB d   0      -2.526  -6.795  24.048  0.00  0.00     0.267 C 
ATOM      2  N1  INB d   0      -3.675  -6.722  24.794  0.00  0.00    -0.246 N 
ATOM      3  C5  INB d   0      -4.669  -5.788  24.643  0.00  0.00     0.243 C 
ATOM      4  O1  INB d   0      -1.636  -7.617  24.292  0.00  0.00    -0.267 OA
ATOM      5  O4  INB d   0      -4.613  -4.827  23.872  0.00  0.00    -0.272 OA
ENDROOT
BRANCH   2   6
ATOM      6  C3  INB d   0      -3.754  -7.599  25.928  0.00  0.00     0.066 A 
ATOM      7  C10 INB d   0      -4.336  -8.872  25.748  0.00  0.00     0.019 A 
ATOM      8  C11 INB d   0      -4.443  -9.772  26.825  0.00  0.00     0.025 A 
ATOM      9  C6  INB d   0      -3.971  -9.414  28.107  0.00  0.00     0.126 A 
ATOM     10  C9  INB d   0      -3.391  -8.137  28.286  0.00  0.00     0.021 A 
ATOM     11  C7  INB d   0      -3.277  -7.228  27.213  0.00  0.00    -0.004 A 
ATOM     12  C15 INB d   0      -2.650  -5.870  27.473  0.00  0.00     0.033 C 
BRANCH   9  13
ATOM     13  N2  INB d   0      -4.083 -10.356  29.239  0.00  0.00    -0.114 N 
ATOM     14  O3  INB d   0      -5.068 -11.083  29.294  0.00  0.00    -0.532 OA
ATOM     15  O2  INB d   0      -3.183 -10.370  30.074  0.00  0.00    -0.532 OA
ENDBRANCH   9  13
ENDBRANCH   2   6
BRANCH   1  16
ATOM     16  C2  INB d   0      -2.257  -5.838  22.908  0.00  0.00     0.062 A 
ATOM     17  C4  INB d   0      -1.599  -4.573  23.055  0.00  0.00     0.069 A 
ATOM     18  C13 INB d   0      -1.350  -3.801  21.893  0.00  0.00     0.006 A 
ATOM     19  C18 INB d   0      -1.766  -4.235  20.623  0.00  0.00     0.000 A 
ATOM     20  C17 INB d   0      -2.442  -5.456  20.488  0.00  0.00     0.000 A 
ATOM     21  C12 INB d   0      -2.686  -6.246  21.624  0.00  0.00     0.005 A 
BRANCH  17  22
ATOM     22  C8  INB d   0      -1.161  -4.002  24.381  0.00  0.00     0.211 C 
ATOM     23  O6  INB d   0      -0.041  -4.331  24.832  0.00  0.00    -0.644 OA
ATOM     24  O5  INB d   0      -1.903  -3.198  24.983  0.00  0.00    -0.644 OA
ENDBRANCH  17  22
ENDBRANCH   1  16
BRANCH   3  25
ATOM     25  C14 INB d   0      -5.907  -5.875  25.564  0.00  0.00     0.089 C 
ATOM     26  C16 INB d   0      -7.200  -6.265  24.830  0.00  0.00     0.010 C 
ENDBRANCH   3  25
TORSDOF 5
ENDMDL
