REMARK  7 active torsions:
REMARK  status: ('A' for Active; 'I' for Inactive)
REMARK    1  A    between atoms: C1_1  and  N1_11 
REMARK    2  A    between atoms: C2_2  and  C5_20 
REMARK       I    between atoms: N1_11  and  C7_12 
REMARK    3  A    between atoms: C7_12  and  C10_15 
REMARK    4  A    between atoms: C10_15  and  C11_16 
REMARK    5  A    between atoms: C11_16  and  C8_17 
REMARK    6  A    between atoms: O5_22  and  C5_20 
REMARK    7  A    between atoms: O5_22  and  C14_23 
ROOT
ATOM      1  C1  INB d   0     -51.497 -14.298  13.860  0.00  0.00     0.094 A 
ATOM      2  C2  INB d   0     -52.002 -15.313  13.056  0.00  0.00     0.082 A 
ATOM      3  C3  INB d   0     -51.718 -15.105  11.658  0.00  0.00    -0.006 A 
ATOM      4  C4  INB d   0     -51.012 -13.952  11.444  0.00  0.00     0.062 A 
ATOM      5  S1  INB d   0     -50.637 -13.111  12.913  0.00  0.00    -0.067 SA
ATOM      6  C6  INB d   0     -50.563 -13.435  10.158  0.00  0.00     0.179 C 
ATOM      7  O2  INB d   0     -49.888 -12.414  10.032  0.00  0.00    -0.291 OA
ATOM      8  C9  INB d   0     -52.085 -15.994  10.494  0.00  0.00     0.028 C 
ATOM      9  C12 INB d   0     -51.005 -14.235   8.930  0.00  0.00     0.070 C 
ATOM     10  C13 INB d   0     -51.199 -15.734   9.253  0.00  0.00     0.013 C 
ENDROOT
BRANCH   1  11
ATOM     11  N1  INB d   0     -51.565 -14.126  15.204  0.00  0.00    -0.320 N 
ATOM     12  H1  INB d   0     -52.411 -13.712  15.566  0.00  0.00     0.169 HD
ATOM     13  C7  INB d   0     -50.708 -14.643  16.102  0.00  0.00     0.235 C 
ATOM     14  O3  INB d   0     -49.487 -14.491  16.046  0.00  0.00    -0.272 OA
BRANCH  13  15
ATOM     15  C10 INB d   0     -51.334 -15.459  17.236  0.00  0.00     0.099 C 
BRANCH  15  16
ATOM     16  C11 INB d   0     -50.508 -15.392  18.539  0.00  0.00     0.107 C 
BRANCH  16  17
ATOM     17  C8  INB d   0     -49.479 -16.522  18.656  0.00  0.00     0.186 C 
ATOM     18  O6  INB d   0     -48.497 -16.458  17.885  0.00  0.00    -0.647 OA
ATOM     19  O4  INB d   0     -49.675 -17.429  19.495  0.00  0.00    -0.647 OA
ENDBRANCH  16  17
ENDBRANCH  15  16
ENDBRANCH  13  15
ENDBRANCH   1  11
BRANCH   2  20
ATOM     20  C5  INB d   0     -52.719 -16.475  13.596  0.00  0.00     0.297 C 
ATOM     21  O1  INB d   0     -52.344 -17.137  14.566  0.00  0.00    -0.259 OA
BRANCH  20  22
ATOM     22  O5  INB d   0     -53.861 -16.744  12.927  0.00  0.00    -0.298 OA
BRANCH  22  23
ATOM     23  C14 INB d   0     -55.101 -16.869  13.612  0.00  0.00     0.152 C 
ATOM     24  C15 INB d   0     -55.398 -15.608  14.434  0.00  0.00     0.035 C 
ENDBRANCH  22  23
ENDBRANCH  20  22
ENDBRANCH   2  20
TORSDOF 7
