@<TRIPOS>MOLECULE
./may11.pdb
 26 27 0 0 0
SMALL
GASTEIGER

@<TRIPOS>ATOM
      1  C1       -50.9990  -15.7080   12.8150 C.2     0  INB0        0.2587
      2  N1       -52.0240  -15.7490   13.7270 N.am    0  INB0       -0.2049
      3  C5       -53.3590  -15.6370   13.4340 C.2     0  INB0        0.2353
      4  O1       -49.8130  -15.7370   13.1590 O.2     0  INB0       -0.2692
      5  O4       -53.8110  -15.3870   12.3140 O.2     0  INB0       -0.2741
      6  C3       -51.6430  -15.7450   15.1110 C.ar    0  INB0        0.0571
      7  C7       -51.3560  -14.5480   15.8190 C.ar    0  INB0       -0.0061
      8  C9       -50.9940  -14.6150   17.1810 C.ar    0  INB0        0.0211
      9  C15      -51.4340  -13.1860   15.1530 C.3     0  INB0        0.0324
     10  C6       -50.9100  -15.8540   17.8570 C.ar    0  INB0        0.1426
     11  C11      -51.1990  -17.0380   17.1430 C.ar    0  INB0        0.0253
     12  C10      -51.5630  -16.9820   15.7850 C.ar    0  INB0        0.0167
     13  N2       -50.5280  -15.9100   19.2830 N.pl3   0  INB0        0.0577
     14  O2       -51.4200  -16.0130   20.1190 O.2     0  INB0       -0.1261
     15  O3       -49.3370  -15.8500   19.5670 O.2     0  INB0       -0.1261
     16  C2       -51.2610  -15.5750   11.3310 C.ar    0  INB0        0.0607
     17  C4       -50.8690  -14.4460   10.5410 C.ar    0  INB0        0.0842
     18  C13      -51.1170  -14.4770    9.1460 C.ar    0  INB0        0.0067
     19  C18      -51.7650  -15.5680    8.5420 C.ar    0  INB0        0.0002
     20  C17      -52.1800  -16.6550    9.3250 C.ar    0  INB0        0.0002
     21  C12      -51.9310  -16.6530   10.7080 C.ar    0  INB0        0.0047
     22  C8       -50.2130  -13.2100   11.1070 C.2     0  INB0        0.3879
     23  O5       -50.0250  -13.1190   12.3380 O.co2   0  INB0       -0.2406
     24  O6       -49.8990  -12.2880   10.3210 O.co2   0  INB0       -0.2406
     25  C14      -54.3770  -15.7280   14.5940 C.3     0  INB0        0.0861
     26  C16      -55.7720  -16.2060   14.1580 C.3     0  INB0        0.0101
@<TRIPOS>BOND
     1    19    18   ar
     2    19    20   ar
     3    18    17   ar
     4    20    21   ar
     5    24    22   ar
     6    17    22    1
     7    17    16   ar
     8    21    16   ar
     9    22    23   ar
    10    16     1    1
    11     5     3    2
    12     1     4    2
    13     1     2   am
    14     3     2   am
    15     3    25    1
    16     2     6    1
    17    26    25    1
    18     6    12   ar
    19     6     7   ar
    20     9     7    1
    21    12    11   ar
    22     7     8   ar
    23    11    10   ar
    24     8    10   ar
    25    10    13    1
    26    13    15    2
    27    13    14    2
