@<TRIPOS>MOLECULE
./may14.pdb
 38 40 0 0 0
SMALL
GASTEIGER

@<TRIPOS>ATOM
      1  C1       -51.0870  -15.8760   15.5830 C.2     0  INB0        0.0872
      2  C4       -52.1210  -16.4200   16.2890 C.3     0  INB0        0.0722
      3  C2       -49.8900  -15.2930   16.1990 C.2     0  INB0        0.2698
      4  N3       -49.1610  -16.1710   16.9070 N.am    0  INB0       -0.2277
      5  H3       -49.4270  -17.1450   16.9260 H       0  INB0        0.1710
      6  O1       -49.5420  -14.1200   16.0440 O.2     0  INB0       -0.2678
      7  N2       -48.1640  -15.8360   17.7520 N.3     0  INB0       -0.1263
      8  C14      -48.4730  -15.8240   19.0000 C.3     0  INB0        0.1378
      9  C15      -47.5150  -16.1640   20.0610 C.ar    0  INB0       -0.0029
     10  C18      -46.4740  -17.0720   19.7750 C.ar    0  INB0       -0.0026
     11  C11      -45.5380  -17.4230   20.7680 C.ar    0  INB0        0.0063
     12  C6       -45.6270  -16.8710   22.0670 C.ar    0  INB0        0.0798
     13  C10      -46.6720  -15.9630   22.3510 C.ar    0  INB0        0.0063
     14  C19      -47.6080  -15.6110   21.3590 C.ar    0  INB0       -0.0026
     15  C5       -44.6280  -17.2470   23.1280 C.2     0  INB0        0.3878
     16  O3       -44.9770  -17.2010   24.3280 O.co2   0  INB0       -0.2406
     17  O4       -43.4780  -17.5930   22.7780 O.co2   0  INB0       -0.2406
     18  N1       -51.0670  -15.7960   14.1810 N.am    0  INB0       -0.2799
     19  C3       -51.1980  -14.7190   13.3810 C.2     0  INB0        0.2494
     20  O2       -51.2770  -13.5530   13.7690 O.2     0  INB0       -0.2698
     21  H1       -50.9960  -16.6900   13.7150 H       0  INB0        0.1550
     22  C8       -51.3490  -15.0370   11.9200 C.ar    0  INB0        0.0537
     23  C22      -50.6310  -14.2920   10.9580 C.ar    0  INB0        0.0045
     24  C27      -50.7490  -14.5920    9.5870 C.ar    0  INB0        0.0001
     25  C28      -51.5820  -15.6450    9.1650 C.ar    0  INB0        0.0000
     26  C26      -52.2920  -16.4020   10.1150 C.ar    0  INB0        0.0001
     27  C23      -52.1750  -16.1020   11.4870 C.ar    0  INB0        0.0045
     28  C9       -52.1930  -16.7870   17.7150 C.ar    0  INB0       -0.0162
     29  C16      -53.1020  -16.1200   18.5570 C.ar    0  INB0       -0.0026
     30  C12      -53.2280  -16.4860   19.9110 C.ar    0  INB0        0.0142
     31  C7       -52.4410  -17.5260   20.4680 C.ar    0  INB0        0.0478
     32  C13      -51.5060  -18.1680   19.6160 C.ar    0  INB0        0.0142
     33  C17      -51.3800  -17.8000   18.2630 C.ar    0  INB0       -0.0026
     34  N4       -52.5810  -17.9010   21.7730 N.pl3   0  INB0       -0.3075
     35  C20      -53.8600  -18.2870   22.3740 C.3     0  INB0        0.0908
     36  C25      -54.5090  -19.4730   21.6470 C.3     0  INB0        0.0232
     37  C21      -51.4740  -17.9360   22.7310 C.3     0  INB0        0.0908
     38  C24      -50.9510  -16.5300   23.0620 C.3     0  INB0        0.0232
@<TRIPOS>BOND
     1    25    24   ar
     2    25    26   ar
     3    24    23   ar
     4    26    27   ar
     5    23    22   ar
     6    27    22   ar
     7    22    19    1
     8    19    20    2
     9    19    18   am
    10    21    18    1
    11    18     1    2
    12     1     3    1
    13     1     2    1
    14     6     3    2
    15     3     4   am
    16     2    28    1
    17     4     5    1
    18     4     7    1
    19    28    33   ar
    20    28    29   ar
    21     7     8    1
    22    33    32   ar
    23    29    30   ar
    24     8     9    1
    25    32    31   ar
    26    10     9   ar
    27    10    11   ar
    28    30    31   ar
    29     9    14   ar
    30    31    34    1
    31    11    12   ar
    32    14    13   ar
    33    36    35    1
    34    34    35    1
    35    34    37    1
    36    12    13   ar
    37    12    15    1
    38    37    38    1
    39    17    15   ar
    40    15    16   ar
