@<TRIPOS>MOLECULE
./may16.pdb
 39 42 0 0 0
SMALL
GASTEIGER

@<TRIPOS>ATOM
      1  C1         1.6340   -2.7940   -0.9090 C.ar  900  UNK900     -0.0176
      2  C2         2.1520   -3.6390    0.1040 C.ar  900  UNK900     -0.0179
      3  C3         2.0270   -5.0380   -0.0160 C.ar  900  UNK900     -0.0540
      4  C4         1.3880   -5.5950   -1.1420 C.ar  900  UNK900     -0.0612
      5  C5         0.8740   -4.7550   -2.1490 C.ar  900  UNK900     -0.0612
      6  C6         0.9960   -3.3570   -2.0330 C.ar  900  UNK900     -0.0540
      7  C7         1.7590   -1.3950   -0.7880 C.ar  900  UNK900     -0.0493
      8  C8         2.3930   -0.8270    0.3400 C.ar  900  UNK900     -0.0291
      9  C9         2.9140   -1.6760    1.3400 C.ar  900  UNK900     -0.0565
     10  C10        2.7920   -3.0740    1.2260 C.ar  900  UNK900     -0.0537
     11  C11        2.5440    0.6810    0.4940 C.3   900  UNK900      0.0453
     12  N1         1.4430    1.4610   -0.0740 N.am  900  UNK900     -0.2598
     13  C12        1.4910    2.1660   -1.2250 C.2   900  UNK900      0.2915
     14  C13        0.1000    2.7970   -1.4060 C.2   900  UNK900      0.2495
     15  C14       -0.6700    2.3490   -0.2500 C.ar  900  UNK900      0.0490
     16  C15        0.1660    1.5530    0.5220 C.ar  900  UNK900      0.0480
     17  O1         2.4380    2.2890   -2.0020 O.2   900  UNK900     -0.2661
     18  O2        -0.2540    3.5180   -2.3380 O.2   900  UNK900     -0.2817
     19  C16       -2.0010    2.6070    0.1160 C.ar  900  UNK900     -0.0369
     20  C17       -2.4920    2.0190    1.3110 C.ar  900  UNK900      0.0373
     21  C18       -1.6300    1.2130    2.1030 C.ar  900  UNK900     -0.0478
     22  C19       -0.2930    0.9670    1.7160 C.ar  900  UNK900     -0.0388
     23  C20       -3.9000    2.2730    1.7700 C.2   900  UNK900      0.2416
     24  O3        -4.1940    2.2800    2.9630 O.2   900  UNK900     -0.2704
     25  N2        -4.8140    2.4290    0.8090 N.am  900  UNK900     -0.3253
     26  H1         2.4190   -5.6900    0.7510 H     900  UNK900      0.0624
     27  H2         1.2930   -6.6670   -1.2320 H     900  UNK900      0.0618
     28  H3         0.3840   -5.1850   -3.0110 H     900  UNK900      0.0618
     29  H4         0.5990   -2.7210   -2.8110 H     900  UNK900      0.0624
     30  H5         1.3670   -0.7600   -1.5690 H     900  UNK900      0.0627
     31  H6         3.4070   -1.2560    2.2040 H     900  UNK900      0.0621
     32  H7         3.1930   -3.7100    2.0020 H     900  UNK900      0.0624
     33  H8         2.6320    0.9320    1.5520 H     900  UNK900      0.0518
     34  H9         3.4920    0.9740    0.0400 H     900  UNK900      0.0518
     35  H10       -2.6200    3.2410   -0.5030 H     900  UNK900      0.0633
     36  H11       -1.9950    0.7710    3.0190 H     900  UNK900      0.0626
     37  H12        0.3500    0.3470    2.3220 H     900  UNK900      0.0637
     38  H13       -5.7790    2.5810    1.0610 H     900  UNK900      0.1453
     39  H14       -4.5390    2.3860   -0.1610 H     900  UNK900      0.1453
@<TRIPOS>BOND
     1     1     2   ar
     2     1     6   ar
     3     1     7   ar
     4     2     3   ar
     5     2    10   ar
     6     3     4   ar
     7     3    26    1
     8     4     5   ar
     9     4    27    1
    10     5     6   ar
    11     5    28    1
    12     6    29    1
    13     7     8   ar
    14     7    30    1
    15     8     9   ar
    16     8    11    1
    17     9    10   ar
    18     9    31    1
    19    10    32    1
    20    11    12    1
    21    11    33    1
    22    11    34    1
    23    12    13   am
    24    12    16    1
    25    13    14    1
    26    13    17    2
    27    14    15    1
    28    14    18    2
    29    15    16   ar
    30    15    19   ar
    31    16    22   ar
    32    19    20   ar
    33    19    35    1
    34    20    21   ar
    35    20    23    1
    36    21    22   ar
    37    21    36    1
    38    22    37    1
    39    23    24    2
    40    23    25   am
    41    25    38    1
    42    25    39    1
