REMARK  5 active torsions:
REMARK  status: ('A' for Active; 'I' for Inactive)
REMARK    1  A    between atoms: C1_1  and  N3_6 
REMARK    2  A    between atoms: C8_19  and  C2_3 
REMARK       I    between atoms: N3_6  and  C3_7 
REMARK    3  A    between atoms: C3_7  and  C6_10 
REMARK    4  A    between atoms: C5_12  and  N2_16 
REMARK    5  A    between atoms: C17_25  and  C13_22 
ROOT
ATOM      1  C1  INB d   0     -50.191 -15.370  17.963  0.00  0.00     0.174 A 
ATOM      2  N1  INB d   0     -49.946 -14.943  16.725  0.00  0.00    -0.222 NA
ATOM      3  C2  INB d   0     -51.000 -15.192  15.832  0.00  0.00     0.090 A 
ATOM      4  S1  INB d   0     -51.768 -16.127  18.147  0.00  0.00    -0.048 SA
ATOM      5  C4  INB d   0     -52.055 -15.826  16.454  0.00  0.00     0.057 A 
ENDROOT
BRANCH   1   6
ATOM      6  N3  INB d   0     -49.205 -15.177  18.960  0.00  0.00    -0.301 N 
ATOM      7  C3  INB d   0     -48.078 -15.886  19.157  0.00  0.00     0.259 C 
ATOM      8  O3  INB d   0     -47.481 -16.510  18.281  0.00  0.00    -0.267 OA
ATOM      9  H1  INB d   0     -49.381 -14.423  19.607  0.00  0.00     0.171 HD
BRANCH   7  10
ATOM     10  C6  INB d   0     -47.515 -15.808  20.547  0.00  0.00     0.058 A 
ATOM     11  C7  INB d   0     -46.258 -16.386  20.831  0.00  0.00     0.028 A 
ATOM     12  C5  INB d   0     -45.712 -16.346  22.136  0.00  0.00     0.127 A 
ATOM     13  C14 INB d   0     -46.453 -15.722  23.166  0.00  0.00     0.024 A 
ATOM     14  C16 INB d   0     -47.712 -15.154  22.896  0.00  0.00     0.002 A 
ATOM     15  C15 INB d   0     -48.245 -15.200  21.595  0.00  0.00     0.005 A 
BRANCH  12  16
ATOM     16  N2  INB d   0     -44.394 -16.947  22.418  0.00  0.00    -0.114 N 
ATOM     17  O1  INB d   0     -43.484 -16.758  21.618  0.00  0.00    -0.532 OA
ATOM     18  O2  INB d   0     -44.265 -17.610  23.443  0.00  0.00    -0.532 OA
ENDBRANCH  12  16
ENDBRANCH   7  10
ENDBRANCH   1   6
BRANCH   3  19
ATOM     19  C8  INB d   0     -50.888 -14.784  14.422  0.00  0.00     0.018 A 
ATOM     20  C10 INB d   0     -51.268 -15.656  13.375  0.00  0.00     0.001 A 
ATOM     21  C12 INB d   0     -51.156 -15.258  12.028  0.00  0.00    -0.004 A 
ATOM     22  C13 INB d   0     -50.660 -13.979  11.706  0.00  0.00    -0.022 A 
ATOM     23  C11 INB d   0     -50.277 -13.103  12.741  0.00  0.00    -0.004 A 
ATOM     24  C9  INB d   0     -50.390 -13.503  14.087  0.00  0.00     0.001 A 
BRANCH  22  25
ATOM     25  C17 INB d   0     -50.536 -13.550  10.257  0.00  0.00     0.026 C 
ATOM     26  C18 INB d   0     -50.994 -14.646   9.287  0.00  0.00     0.005 C 
ENDBRANCH  22  25
ENDBRANCH   3  19
TORSDOF 5
