@<TRIPOS>MOLECULE
./may1.pdb
 27 28 0 0 0
SMALL
GASTEIGER

@<TRIPOS>ATOM
      1  C1         0.6480   -0.8050   -0.5470 C.ar    1  UNK1        0.2206
      2  O2        -0.5120   -1.1310   -1.2180 O.3     1  UNK1       -0.4380
      3  C3         1.8080   -1.5670   -0.7870 C.ar    1  UNK1        0.0026
      4  N4         0.6280    0.2400    0.3170 N.ar    1  UNK1       -0.2187
      5  C5        -1.6760   -0.4500   -0.9640 C.ar    1  UNK1        0.1307
      6  C6         2.9920   -1.2330   -0.1030 C.ar    1  UNK1       -0.0249
      7  C7         1.7680    0.5540    0.9690 C.ar    1  UNK1        0.0616
      8  C8        -2.5340   -0.8750    0.0710 C.ar    1  UNK1       -0.0150
      9  C9        -2.0270    0.6650   -1.7500 C.ar    1  UNK1       -0.0179
     10  C10        2.9850   -0.1470    0.8010 C.ar    1  UNK1        0.1444
     11  C11       -3.7360   -0.1840    0.3330 C.ar    1  UNK1       -0.0287
     12  C12       -3.2250    1.3590   -1.4940 C.ar    1  UNK1       -0.0397
     13  N13        4.1990    0.2420    1.5410 N.pl3   1  UNK1        0.0579
     14  C14       -4.0800    0.9400   -0.4550 C.ar    1  UNK1        0.0441
     15  C15       -4.6430   -0.6530    1.4550 C.3     1  UNK1       -0.0382
     16  O16        4.1290    1.1940    2.3110 O.2     1  UNK1       -0.1261
     17  O17        5.2240   -0.4050    1.3520 O.2     1  UNK1       -0.1261
     18 Cl18       -5.5420    1.8140   -0.1670 Cl      1  UNK1       -0.0833
     19  H19        1.7890   -2.3930   -1.4820 H       1  UNK1        0.0671
     20  H20        3.8890   -1.8090   -0.2770 H       1  UNK1        0.0642
     21  H21        1.6970    1.3930    1.6450 H       1  UNK1        0.0854
     22  H22       -2.2610   -1.7350    0.6660 H       1  UNK1        0.0657
     23  H23       -1.3750    0.9910   -2.5470 H       1  UNK1        0.0655
     24  H24       -3.4880    2.2160   -2.0960 H       1  UNK1        0.0633
     25  H25       -4.7700    0.1360    2.1960 H       1  UNK1        0.0278
     26  H26       -5.6250   -0.9200    1.0630 H       1  UNK1        0.0278
     27  H27       -4.2330   -1.5270    1.9600 H       1  UNK1        0.0278
@<TRIPOS>BOND
     1     1     2    1
     2     1     3   ar
     3     1     4   ar
     4     2     5    1
     5     3     6   ar
     6     3    19    1
     7     4     7   ar
     8     5     8   ar
     9     5     9   ar
    10     6    10   ar
    11     6    20    1
    12     7    10   ar
    13     7    21    1
    14     8    11   ar
    15     8    22    1
    16     9    12   ar
    17     9    23    1
    18    10    13    1
    19    11    14   ar
    20    11    15    1
    21    12    14   ar
    22    12    24    1
    23    13    16    2
    24    13    17    2
    25    14    18    1
    26    15    25    1
    27    15    26    1
    28    15    27    1
