@<TRIPOS>MOLECULE
./may19.pdb
 27 29 0 0 0
SMALL
GASTEIGER

@<TRIPOS>ATOM
      1  C1       -52.1770  -15.5840   15.3020 C.ar    0  INB0        0.1224
      2  C2       -51.4290  -14.9850   14.2130 C.ar    0  INB0        0.2935
      3  N1       -53.2200  -16.0750   13.4180 N.ar    0  INB0       -0.2646
      4  N2       -52.1080  -15.2990   13.0880 N.ar    0  INB0       -0.2134
      5  C3       -53.2290  -16.2370   14.7810 C.ar    0  INB0        0.0727
      6  O1       -50.3880  -14.3310   14.2860 O.2     0  INB0       -0.2638
      7  C9       -54.4140  -15.7370   12.6500 C.3     0  INB0        0.1518
      8  C10      -54.2730  -17.1200   15.4420 C.3     0  INB0        0.0531
      9  N3       -51.7330  -15.4900   16.6260 N.am    0  INB0       -0.2757
     10  C4       -51.1730  -16.4590   17.3700 C.2     0  INB0        0.2498
     11  O2       -51.0640  -17.6380   17.0340 O.2     0  INB0       -0.2698
     12  H1       -51.9180  -14.6100   17.0850 H       0  INB0        0.1553
     13  C5       -50.7090  -16.0040   18.7280 C.ar    0  INB0        0.0600
     14  C6       -49.3460  -15.6840   19.0250 C.ar    0  INB0        0.0841
     15  C12      -49.0000  -15.3680   20.3600 C.ar    0  INB0        0.0067
     16  C16      -49.9680  -15.3350   21.3800 C.ar    0  INB0        0.0002
     17  C15      -51.3080  -15.6240   21.0800 C.ar    0  INB0        0.0002
     18  C11      -51.6720  -15.9590   19.7640 C.ar    0  INB0        0.0047
     19  C7       -48.2480  -15.6300   17.9860 C.2     0  INB0        0.3879
     20  O3       -47.4790  -16.6080   17.8410 O.co2   0  INB0       -0.2406
     21  O4       -48.1680  -14.6140   17.2600 O.co2   0  INB0       -0.2406
     22  C8       -51.6610  -15.1170   11.7460 C.ar    0  INB0        0.0841
     23  C13      -51.0150  -13.9170   11.3680 C.ar    0  INB0        0.0192
     24  C17      -50.5610  -13.7390   10.0480 C.ar    0  INB0        0.0015
     25  C19      -50.7480  -14.7580    9.0950 C.ar    0  INB0        0.0001
     26  C18      -51.3870  -15.9570    9.4630 C.ar    0  INB0        0.0015
     27  C14      -51.8410  -16.1370   10.7840 C.ar    0  INB0        0.0192
@<TRIPOS>BOND
     1    25    26   ar
     2    25    24   ar
     3    26    27   ar
     4    24    23   ar
     5    27    22   ar
     6    23    22   ar
     7    22     4    1
     8     7     3    1
     9     4     3   ar
    10     4     2   ar
    11     3     5   ar
    12     2     6    2
    13     2     1   ar
    14     5     1   ar
    15     5     8    1
    16     1     9    1
    17     9    12    1
    18     9    10   am
    19    11    10    2
    20    21    19   ar
    21    10    13    1
    22    20    19   ar
    23    19    14    1
    24    13    14   ar
    25    13    18   ar
    26    14    15   ar
    27    18    17   ar
    28    15    16   ar
    29    17    16   ar
