@<TRIPOS>MOLECULE
./may10.pdb
 26 28 0 0 0
SMALL
GASTEIGER

@<TRIPOS>ATOM
      1  C1       -50.1910  -15.3700   17.9630 C.ar    0  INB0        0.1658
      2  N1       -49.9460  -14.9430   16.7250 N.ar    0  INB0       -0.2239
      3  C2       -51.0000  -15.1920   15.8320 C.ar    0  INB0        0.0897
      4  S1       -51.7680  -16.1270   18.1470 S.2     0  INB0       -0.0508
      5  C4       -52.0550  -15.8260   16.4540 C.ar    0  INB0        0.0572
      6  N3       -49.2050  -15.1770   18.9600 N.am    0  INB0       -0.2606
      7  C3       -48.0780  -15.8860   19.1570 C.2     0  INB0        0.2510
      8  O3       -47.4810  -16.5100   18.2810 O.2     0  INB0       -0.2698
      9  H1       -49.3810  -14.4230   19.6070 H       0  INB0        0.1571
     10  C6       -47.5150  -15.8080   20.5470 C.ar    0  INB0        0.0554
     11  C7       -46.2580  -16.3860   20.8310 C.ar    0  INB0        0.0286
     12  C5       -45.7120  -16.3460   22.1360 C.ar    0  INB0        0.1430
     13  C14      -46.4530  -15.7220   23.1660 C.ar    0  INB0        0.0241
     14  C16      -47.7120  -15.1540   22.8960 C.ar    0  INB0        0.0018
     15  C15      -48.2450  -15.2000   21.5950 C.ar    0  INB0        0.0046
     16  N2       -44.3940  -16.9470   22.4180 N.pl3   0  INB0        0.0577
     17  O1       -43.4840  -16.7580   21.6180 O.2     0  INB0       -0.1261
     18  O2       -44.2650  -17.6100   23.4430 O.2     0  INB0       -0.1261
     19  C8       -50.8880  -14.7840   14.4220 C.ar    0  INB0        0.0182
     20  C9       -50.3900  -13.5030   14.0870 C.ar    0  INB0        0.0012
     21  C11      -50.2770  -13.1030   12.7410 C.ar    0  INB0       -0.0042
     22  C13      -50.6600  -13.9790   11.7060 C.ar    0  INB0       -0.0222
     23  C12      -51.1560  -15.2580   12.0280 C.ar    0  INB0       -0.0042
     24  C10      -51.2680  -15.6560   13.3750 C.ar    0  INB0        0.0012
     25  C17      -50.5360  -13.5500   10.2570 C.3     0  INB0        0.0264
     26  C18      -50.9940  -14.6460    9.2870 C.3     0  INB0        0.0050
@<TRIPOS>BOND
     1    26    25    1
     2    25    22    1
     3    22    23   ar
     4    22    21   ar
     5    23    24   ar
     6    21    20   ar
     7    24    19   ar
     8    20    19   ar
     9    19     3    1
    10     3     5   ar
    11     3     2   ar
    12     5     4   ar
    13     2     1   ar
    14     1     4   ar
    15     1     6    1
    16     8     7    2
    17     6     7   am
    18     6     9    1
    19     7    10    1
    20    10    11   ar
    21    10    15   ar
    22    11    12   ar
    23    15    14   ar
    24    17    16    2
    25    12    16    1
    26    12    13   ar
    27    16    18    2
    28    14    13   ar
