@<TRIPOS>MOLECULE
./may17.pdb
 49 52 0 0 0
SMALL
GASTEIGER

@<TRIPOS>ATOM
      1  C1         1.6080    0.9810   -0.4650 C.ar    1  UNK1        0.1430
      2  C2         2.1790   -0.1300   -1.1280 C.ar    1  UNK1        0.0642
      3  O3         2.3850    1.9450    0.1370 O.2     1  UNK1       -0.4479
      4  C4         0.2060    1.1180   -0.4150 C.ar    1  UNK1        0.0238
      5  C5         3.6530   -0.2560   -1.1690 C.ar    1  UNK1        0.1933
      6  C6         1.3440   -1.0910   -1.7380 C.ar    1  UNK1       -0.0439
      7  C7         3.7570    1.8410    0.1090 C.ar    1  UNK1        0.2156
      8  C8        -0.6290    0.1500   -1.0090 C.ar    1  UNK1        0.1355
      9  C9         4.4010    0.8160   -0.4980 C.ar    1  UNK1        0.0352
     10  O10        4.2280   -1.1900   -1.7240 O.2     1  UNK1       -0.2870
     11  C11       -0.0550   -0.9480   -1.6840 C.ar    1  UNK1       -0.0183
     12  C12        4.4810    2.9370    0.7930 C.2     1  UNK1        0.3750
     13  O13       -1.9910    0.3180   -0.9730 O.3     1  UNK1       -0.4221
     14  O14        5.8230    2.8040    0.7450 O.3     1  UNK1       -0.4593
     15  O15        3.9030    3.8730    1.3480 O.2     1  UNK1       -0.2415
     16  C16       -2.7500   -0.4530   -0.1540 C.2     1  UNK1        0.3496
     17  C17        6.6520    3.7790    1.3580 C.3     1  UNK1        0.0901
     18  C18       -4.2110   -0.1490   -0.2710 C.ar    1  UNK1        0.1211
     19  O19       -2.2820   -1.3080    0.6000 O.2     1  UNK1       -0.2443
     20  C20        8.1190    3.3920    1.1570 C.3     1  UNK1       -0.0306
     21  C21       -5.1810   -0.8130    0.5280 C.ar    1  UNK1        0.2346
     22  C22       -4.6860    0.8140   -1.1950 C.ar    1  UNK1       -0.0411
     23  O23       -4.8230   -1.7560    1.4620 O.3     1  UNK1       -0.4372
     24  N24       -6.5100   -0.5630    0.4440 N.ar    1  UNK1       -0.2203
     25  C25       -6.0670    1.0710   -1.2840 C.ar    1  UNK1       -0.0426
     26  C26       -5.3650   -3.0110    1.3440 C.ar    1  UNK1        0.1304
     27  C27       -6.9360    0.3560   -0.4440 C.ar    1  UNK1        0.0314
     28  C28       -5.0180   -3.8430    0.2580 C.ar    1  UNK1       -0.0193
     29  C29       -6.2590   -3.4810    2.3270 C.ar    1  UNK1       -0.0193
     30  C30       -5.5720   -5.1330    0.1500 C.ar    1  UNK1       -0.0583
     31  C31       -6.8140   -4.7710    2.2200 C.ar    1  UNK1       -0.0583
     32  C32       -6.4710   -5.5970    1.1310 C.ar    1  UNK1       -0.0615
     33  H33       -0.2300    1.9690    0.0880 H       1  UNK1        0.0691
     34  H34        1.7690   -1.9420   -2.2530 H       1  UNK1        0.0627
     35  H35        5.4780    0.7430   -0.5160 H       1  UNK1        0.0695
     36  H36       -0.6880   -1.6840   -2.1570 H       1  UNK1        0.0654
     37  H37        6.4590    4.7580    0.9190 H       1  UNK1        0.0695
     38  H38        6.4240    3.8430    2.4230 H       1  UNK1        0.0695
     39  H39        8.7800    4.1260    1.6180 H       1  UNK1        0.0262
     40  H40        8.3330    2.4210    1.6040 H       1  UNK1        0.0262
     41  H41        8.3680    3.3370    0.0970 H       1  UNK1        0.0262
     42  H42       -4.0170    1.3630   -1.8420 H       1  UNK1        0.0628
     43  H43       -6.4500    1.8010   -1.9820 H       1  UNK1        0.0633
     44  H44       -8.0020    0.5270   -0.4840 H       1  UNK1        0.0831
     45  H45       -4.3260   -3.4900   -0.4930 H       1  UNK1        0.0654
     46  H46       -6.5220   -2.8490    3.1620 H       1  UNK1        0.0654
     47  H47       -5.3070   -5.7670   -0.6830 H       1  UNK1        0.0619
     48  H48       -7.5010   -5.1280    2.9720 H       1  UNK1        0.0619
     49  H49       -6.8960   -6.5860    1.0480 H       1  UNK1        0.0618
@<TRIPOS>BOND
     1     1     2   ar
     2     1     3   ar
     3     1     4   ar
     4     2     5   ar
     5     2     6   ar
     6     3     7   ar
     7     4     8   ar
     8     4    33    1
     9     5     9   ar
    10     5    10    2
    11     6    11   ar
    12     6    34    1
    13     7    12    1
    14     7     9   ar
    15     8    13    1
    16     8    11   ar
    17     9    35    1
    18    11    36    1
    19    12    14    1
    20    12    15    2
    21    13    16    1
    22    14    17    1
    23    16    18    1
    24    16    19    2
    25    17    20    1
    26    17    37    1
    27    17    38    1
    28    18    21   ar
    29    18    22   ar
    30    20    39    1
    31    20    40    1
    32    20    41    1
    33    21    23    1
    34    21    24   ar
    35    22    25   ar
    36    22    42    1
    37    23    26    1
    38    24    27   ar
    39    25    27   ar
    40    25    43    1
    41    26    28   ar
    42    26    29   ar
    43    27    44    1
    44    28    30   ar
    45    28    45    1
    46    29    31   ar
    47    29    46    1
    48    30    32   ar
    49    30    47    1
    50    31    32   ar
    51    31    48    1
    52    32    49    1
