MODEL 1
REMARK VINA RESULT:    -7.833      0.000      0.000
REMARK INTER + INTRA:          -9.872
REMARK INTER:                  -9.207
REMARK INTRA:                  -0.665
REMARK UNBOUND:                -0.665
REMARK  3 active torsions:
REMARK  status: ('A' for Active; 'I' for Inactive)
REMARK    1  A    between atoms: C1_1  and  N1_19 
REMARK    2  A    between atoms: C5_9  and  C3_3 
REMARK    3  A    between atoms: C6_11  and  N2_10 
ROOT
ATOM      1  C1  INB d   0      -6.242  -6.926  26.345  0.00  0.00     0.153 A 
ATOM      2  C2  INB d   0      -5.894  -6.477  25.042  0.00  0.00     0.154 A 
ATOM      3  C3  INB d   0      -4.877  -7.144  24.302  0.00  0.00     0.047 A 
ATOM      4  C4  INB d   0      -5.587  -8.049  26.892  0.00  0.00     0.037 A 
ATOM      5  C7  INB d   0      -4.232  -8.261  24.883  0.00  0.00     0.015 A 
ATOM      6  C8  INB d   0      -4.585  -8.713  26.166  0.00  0.00     0.060 A 
ATOM      7 Cl   INB d   0      -3.786 -10.081  26.850  0.00  0.00    -0.082 Cl
ATOM      8  O3  INB d   0      -6.562  -5.412  24.495  0.00  0.00    -0.188 OA
ENDROOT
BRANCH   3   9
ATOM      9  C5  INB d   0      -4.477  -6.705  22.936  0.00  0.00     0.101 C 
ATOM     10  N2  INB d   0      -3.286  -6.439  22.577  0.00  0.00    -0.244 NA
BRANCH  10  11
ATOM     11  C6  INB d   0      -2.878  -5.104  22.432  0.00  0.00     0.077 A 
ATOM     12  C9  INB d   0      -2.294  -4.685  21.211  0.00  0.00    -0.004 A 
ATOM     13  C11 INB d   0      -1.899  -3.342  21.040  0.00  0.00    -0.003 A 
ATOM     14  C14 INB d   0      -2.082  -5.669  20.071  0.00  0.00     0.033 C 
ATOM     15  C13 INB d   0      -2.085  -2.407  22.074  0.00  0.00    -0.004 A 
ATOM     16  C12 INB d   0      -2.677  -2.806  23.287  0.00  0.00    -0.020 A 
ATOM     17  C15 INB d   0      -2.891  -1.800  24.399  0.00  0.00     0.031 C 
ATOM     18  C10 INB d   0      -3.075  -4.147  23.460  0.00  0.00     0.015 A 
ENDBRANCH  10  11
ENDBRANCH   3   9
BRANCH   1  19
ATOM     19  N1  INB d   0      -7.280  -6.262  27.154  0.00  0.00    -0.112 N 
ATOM     20  O2  INB d   0      -8.447  -6.578  26.941  0.00  0.00    -0.532 OA
ATOM     21  O1  INB d   0      -6.932  -5.468  28.021  0.00  0.00    -0.532 OA
ENDBRANCH   1  19
TORSDOF 3
ENDMDL
MODEL 2
REMARK VINA RESULT:    -7.759      1.653      1.757
REMARK INTER + INTRA:          -9.785
REMARK INTER:                  -9.364
REMARK INTRA:                  -0.421
REMARK UNBOUND:                -0.665
REMARK  3 active torsions:
REMARK  status: ('A' for Active; 'I' for Inactive)
REMARK    1  A    between atoms: C1_1  and  N1_19 
REMARK    2  A    between atoms: C5_9  and  C3_3 
REMARK    3  A    between atoms: C6_11  and  N2_10 
ROOT
ATOM      1  C1  INB d   0      -6.199  -6.447  27.211  0.00  0.00     0.153 A 
ATOM      2  C2  INB d   0      -5.953  -6.232  25.827  0.00  0.00     0.154 A 
ATOM      3  C3  INB d   0      -4.626  -6.010  25.361  0.00  0.00     0.047 A 
ATOM      4  C4  INB d   0      -5.117  -6.459  28.116  0.00  0.00     0.037 A 
ATOM      5  C7  INB d   0      -3.565  -6.017  26.296  0.00  0.00     0.015 A 
ATOM      6  C8  INB d   0      -3.807  -6.242  27.662  0.00  0.00     0.060 A 
ATOM      7 Cl   INB d   0      -2.493  -6.251  28.782  0.00  0.00    -0.082 Cl
ATOM      8  O3  INB d   0      -7.001  -6.265  24.944  0.00  0.00    -0.188 OA
ENDROOT
BRANCH   3   9
ATOM      9  C5  INB d   0      -4.323  -5.775  23.922  0.00  0.00     0.101 C 
ATOM     10  N2  INB d   0      -3.169  -5.520  23.453  0.00  0.00    -0.244 NA
BRANCH  10  11
ATOM     11  C6  INB d   0      -2.838  -4.208  23.079  0.00  0.00     0.077 A 
ATOM     12  C9  INB d   0      -2.373  -3.959  21.763  0.00  0.00    -0.004 A 
ATOM     13  C11 INB d   0      -2.058  -2.644  21.362  0.00  0.00    -0.003 A 
ATOM     14  C14 INB d   0      -2.204  -5.096  20.768  0.00  0.00     0.033 C 
ATOM     15  C13 INB d   0      -2.207  -1.570  22.258  0.00  0.00    -0.004 A 
ATOM     16  C12 INB d   0      -2.681  -1.802  23.563  0.00  0.00    -0.020 A 
ATOM     17  C15 INB d   0      -2.856  -0.647  24.528  0.00  0.00     0.031 C 
ATOM     18  C10 INB d   0      -3.000  -3.114  23.966  0.00  0.00     0.015 A 
ENDBRANCH  10  11
ENDBRANCH   3   9
BRANCH   1  19
ATOM     19  N1  INB d   0      -7.555  -6.671  27.742  0.00  0.00    -0.112 N 
ATOM     20  O2  INB d   0      -7.722  -7.647  28.468  0.00  0.00    -0.532 OA
ATOM     21  O1  INB d   0      -8.434  -5.858  27.476  0.00  0.00    -0.532 OA
ENDBRANCH   1  19
TORSDOF 3
ENDMDL
MODEL 3
REMARK VINA RESULT:    -7.226      1.419      2.631
REMARK INTER + INTRA:          -9.158
REMARK INTER:                  -8.372
REMARK INTRA:                  -0.786
REMARK UNBOUND:                -0.665
REMARK  3 active torsions:
REMARK  status: ('A' for Active; 'I' for Inactive)
REMARK    1  A    between atoms: C1_1  and  N1_19 
REMARK    2  A    between atoms: C5_9  and  C3_3 
REMARK    3  A    between atoms: C6_11  and  N2_10 
ROOT
ATOM      1  C1  INB d   0      -6.367  -7.512  27.017  0.00  0.00     0.153 A 
ATOM      2  C2  INB d   0      -5.480  -7.423  25.910  0.00  0.00     0.154 A 
ATOM      3  C3  INB d   0      -4.479  -8.417  25.713  0.00  0.00     0.047 A 
ATOM      4  C4  INB d   0      -6.263  -8.601  27.907  0.00  0.00     0.037 A 
ATOM      5  C7  INB d   0      -4.394  -9.491  26.630  0.00  0.00     0.015 A 
ATOM      6  C8  INB d   0      -5.280  -9.585  27.716  0.00  0.00     0.060 A 
ATOM      7 Cl   INB d   0      -5.158 -10.908  28.817  0.00  0.00    -0.082 Cl
ATOM      8  O3  INB d   0      -5.611  -6.387  25.022  0.00  0.00    -0.188 OA
ENDROOT
BRANCH   3   9
ATOM      9  C5  INB d   0      -3.525  -8.361  24.571  0.00  0.00     0.101 C 
ATOM     10  N2  INB d   0      -2.470  -7.650  24.538  0.00  0.00    -0.244 NA
BRANCH  10  11
ATOM     11  C6  INB d   0      -2.446  -6.465  23.787  0.00  0.00     0.077 A 
ATOM     12  C9  INB d   0      -2.436  -5.218  24.460  0.00  0.00    -0.004 A 
ATOM     13  C11 INB d   0      -2.389  -4.016  23.722  0.00  0.00    -0.003 A 
ATOM     14  C14 INB d   0      -2.480  -5.151  25.979  0.00  0.00     0.033 C 
ATOM     15  C13 INB d   0      -2.345  -4.044  22.316  0.00  0.00    -0.004 A 
ATOM     16  C12 INB d   0      -2.340  -5.276  21.636  0.00  0.00    -0.020 A 
ATOM     17  C15 INB d   0      -2.279  -5.312  20.123  0.00  0.00     0.031 C 
ATOM     18  C10 INB d   0      -2.384  -6.478  22.370  0.00  0.00     0.015 A 
ENDBRANCH  10  11
ENDBRANCH   3   9
BRANCH   1  19
ATOM     19  N1  INB d   0      -7.412  -6.503  27.269  0.00  0.00    -0.112 N 
ATOM     20  O2  INB d   0      -8.474  -6.630  26.667  0.00  0.00    -0.532 OA
ATOM     21  O1  INB d   0      -7.191  -5.620  28.092  0.00  0.00    -0.532 OA
ENDBRANCH   1  19
TORSDOF 3
ENDMDL
MODEL 4
REMARK VINA RESULT:    -7.179      4.372      7.626
REMARK INTER + INTRA:          -9.104
REMARK INTER:                  -8.473
REMARK INTRA:                  -0.630
REMARK UNBOUND:                -0.665
REMARK  3 active torsions:
REMARK  status: ('A' for Active; 'I' for Inactive)
REMARK    1  A    between atoms: C1_1  and  N1_19 
REMARK    2  A    between atoms: C5_9  and  C3_3 
REMARK    3  A    between atoms: C6_11  and  N2_10 
ROOT
ATOM      1  C1  INB d   0      -6.402  -7.255  27.773  0.00  0.00     0.153 A 
ATOM      2  C2  INB d   0      -6.274  -8.660  27.946  0.00  0.00     0.154 A 
ATOM      3  C3  INB d   0      -5.285  -9.384  27.220  0.00  0.00     0.047 A 
ATOM      4  C4  INB d   0      -5.530  -6.580  26.894  0.00  0.00     0.037 A 
ATOM      5  C7  INB d   0      -4.434  -8.679  26.338  0.00  0.00     0.015 A 
ATOM      6  C8  INB d   0      -4.552  -7.287  26.178  0.00  0.00     0.060 A 
ATOM      7 Cl   INB d   0      -3.497  -6.450  25.099  0.00  0.00    -0.082 Cl
ATOM      8  O3  INB d   0      -7.094  -9.308  28.833  0.00  0.00    -0.188 OA
ENDROOT
BRANCH   3   9
ATOM      9  C5  INB d   0      -5.119 -10.857  27.365  0.00  0.00     0.101 C 
ATOM     10  N2  INB d   0      -4.716 -11.443  28.420  0.00  0.00    -0.244 NA
BRANCH  10  11
ATOM     11  C6  INB d   0      -3.402 -11.931  28.493  0.00  0.00     0.077 A 
ATOM     12  C9  INB d   0      -2.956 -12.545  29.689  0.00  0.00    -0.004 A 
ATOM     13  C11 INB d   0      -1.646 -13.062  29.773  0.00  0.00    -0.003 A 
ATOM     14  C14 INB d   0      -3.872 -12.655  30.898  0.00  0.00     0.033 C 
ATOM     15  C13 INB d   0      -0.775 -12.978  28.671  0.00  0.00    -0.004 A 
ATOM     16  C12 INB d   0      -1.211 -12.384  27.472  0.00  0.00    -0.020 A 
ATOM     17  C15 INB d   0      -0.281 -12.303  26.279  0.00  0.00     0.031 C 
ATOM     18  C10 INB d   0      -2.520 -11.869  27.385  0.00  0.00     0.015 A 
ENDBRANCH  10  11
ENDBRANCH   3   9
BRANCH   1  19
ATOM     19  N1  INB d   0      -7.416  -6.465  28.493  0.00  0.00    -0.112 N 
ATOM     20  O2  INB d   0      -7.084  -5.964  29.564  0.00  0.00    -0.532 OA
ATOM     21  O1  INB d   0      -8.517  -6.308  27.975  0.00  0.00    -0.532 OA
ENDBRANCH   1  19
TORSDOF 3
ENDMDL
MODEL 5
REMARK VINA RESULT:    -7.124      1.869      2.293
REMARK INTER + INTRA:          -9.039
REMARK INTER:                  -8.276
REMARK INTRA:                  -0.763
REMARK UNBOUND:                -0.665
REMARK  3 active torsions:
REMARK  status: ('A' for Active; 'I' for Inactive)
REMARK    1  A    between atoms: C1_1  and  N1_19 
REMARK    2  A    between atoms: C5_9  and  C3_3 
REMARK    3  A    between atoms: C6_11  and  N2_10 
ROOT
ATOM      1  C1  INB d   0      -6.453  -7.317  27.767  0.00  0.00     0.153 A 
ATOM      2  C2  INB d   0      -6.146  -6.466  26.670  0.00  0.00     0.154 A 
ATOM      3  C3  INB d   0      -5.315  -6.933  25.612  0.00  0.00     0.047 A 
ATOM      4  C4  INB d   0      -5.947  -8.634  27.790  0.00  0.00     0.037 A 
ATOM      5  C7  INB d   0      -4.814  -8.254  25.671  0.00  0.00     0.015 A 
ATOM      6  C8  INB d   0      -5.129  -9.100  26.748  0.00  0.00     0.060 A 
ATOM      7 Cl   INB d   0      -4.509 -10.710  26.793  0.00  0.00    -0.082 Cl
ATOM      8  O3  INB d   0      -6.675  -5.203  26.628  0.00  0.00    -0.188 OA
ENDROOT
BRANCH   3   9
ATOM      9  C5  INB d   0      -4.962  -6.074  24.448  0.00  0.00     0.101 C 
ATOM     10  N2  INB d   0      -3.787  -5.921  23.986  0.00  0.00    -0.244 NA
BRANCH  10  11
ATOM     11  C6  INB d   0      -3.075  -4.742  24.257  0.00  0.00     0.077 A 
ATOM     12  C9  INB d   0      -1.876  -4.813  25.008  0.00  0.00    -0.004 A 
ATOM     13  C11 INB d   0      -1.135  -3.641  25.270  0.00  0.00    -0.003 A 
ATOM     14  C14 INB d   0      -1.370  -6.144  25.544  0.00  0.00     0.033 C 
ATOM     15  C13 INB d   0      -1.575  -2.397  24.786  0.00  0.00    -0.004 A 
ATOM     16  C12 INB d   0      -2.757  -2.314  24.026  0.00  0.00    -0.020 A 
ATOM     17  C15 INB d   0      -3.229  -0.977  23.491  0.00  0.00     0.031 C 
ATOM     18  C10 INB d   0      -3.498  -3.483  23.760  0.00  0.00     0.015 A 
ENDBRANCH  10  11
ENDBRANCH   3   9
BRANCH   1  19
ATOM     19  N1  INB d   0      -7.300  -6.877  28.890  0.00  0.00    -0.112 N 
ATOM     20  O2  INB d   0      -8.516  -6.961  28.745  0.00  0.00    -0.532 OA
ATOM     21  O1  INB d   0      -6.757  -6.493  29.921  0.00  0.00    -0.532 OA
ENDBRANCH   1  19
TORSDOF 3
ENDMDL
MODEL 6
REMARK VINA RESULT:    -6.986      2.636      2.839
REMARK INTER + INTRA:          -8.876
REMARK INTER:                  -8.327
REMARK INTRA:                  -0.550
REMARK UNBOUND:                -0.665
REMARK  3 active torsions:
REMARK  status: ('A' for Active; 'I' for Inactive)
REMARK    1  A    between atoms: C1_1  and  N1_19 
REMARK    2  A    between atoms: C5_9  and  C3_3 
REMARK    3  A    between atoms: C6_11  and  N2_10 
ROOT
ATOM      1  C1  INB d   0      -4.755  -8.835  26.328  0.00  0.00     0.153 A 
ATOM      2  C2  INB d   0      -4.379  -8.471  25.006  0.00  0.00     0.154 A 
ATOM      3  C3  INB d   0      -4.828  -7.241  24.446  0.00  0.00     0.047 A 
ATOM      4  C4  INB d   0      -5.558  -7.960  27.088  0.00  0.00     0.037 A 
ATOM      5  C7  INB d   0      -5.641  -6.391  25.231  0.00  0.00     0.015 A 
ATOM      6  C8  INB d   0      -6.001  -6.745  26.543  0.00  0.00     0.060 A 
ATOM      7 Cl   INB d   0      -6.990  -5.687  27.482  0.00  0.00    -0.082 Cl
ATOM      8  O3  INB d   0      -3.562  -9.302  24.284  0.00  0.00    -0.188 OA
ENDROOT
BRANCH   3   9
ATOM      9  C5  INB d   0      -4.463  -6.822  23.064  0.00  0.00     0.101 C 
ATOM     10  N2  INB d   0      -3.283  -6.552  22.673  0.00  0.00    -0.244 NA
BRANCH  10  11
ATOM     11  C6  INB d   0      -2.892  -5.216  22.496  0.00  0.00     0.077 A 
ATOM     12  C9  INB d   0      -2.363  -4.808  21.246  0.00  0.00    -0.004 A 
ATOM     13  C11 INB d   0      -1.985  -3.464  21.042  0.00  0.00    -0.003 A 
ATOM     14  C14 INB d   0      -2.189  -5.805  20.110  0.00  0.00     0.033 C 
ATOM     15  C13 INB d   0      -2.136  -2.517  22.071  0.00  0.00    -0.004 A 
ATOM     16  C12 INB d   0      -2.674  -2.906  23.313  0.00  0.00    -0.020 A 
ATOM     17  C15 INB d   0      -2.850  -1.887  24.420  0.00  0.00     0.031 C 
ATOM     18  C10 INB d   0      -3.054  -4.247  23.519  0.00  0.00     0.015 A 
ENDBRANCH  10  11
ENDBRANCH   3   9
BRANCH   1  19
ATOM     19  N1  INB d   0      -4.324 -10.101  26.946  0.00  0.00    -0.112 N 
ATOM     20  O2  INB d   0      -5.129 -11.029  26.949  0.00  0.00    -0.532 OA
ATOM     21  O1  INB d   0      -3.182 -10.184  27.384  0.00  0.00    -0.532 OA
ENDBRANCH   1  19
TORSDOF 3
ENDMDL
MODEL 7
REMARK VINA RESULT:    -6.972      3.059      3.839
REMARK INTER + INTRA:          -8.861
REMARK INTER:                  -8.175
REMARK INTRA:                  -0.686
REMARK UNBOUND:                -0.665
REMARK  3 active torsions:
REMARK  status: ('A' for Active; 'I' for Inactive)
REMARK    1  A    between atoms: C1_1  and  N1_19 
REMARK    2  A    between atoms: C5_9  and  C3_3 
REMARK    3  A    between atoms: C6_11  and  N2_10 
ROOT
ATOM      1  C1  INB d   0      -5.445  -9.527  27.390  0.00  0.00     0.153 A 
ATOM      2  C2  INB d   0      -4.650  -9.219  26.253  0.00  0.00     0.154 A 
ATOM      3  C3  INB d   0      -4.816  -7.977  25.577  0.00  0.00     0.047 A 
ATOM      4  C4  INB d   0      -6.387  -8.586  27.856  0.00  0.00     0.037 A 
ATOM      5  C7  INB d   0      -5.776  -7.059  26.064  0.00  0.00     0.015 A 
ATOM      6  C8  INB d   0      -6.554  -7.358  27.195  0.00  0.00     0.060 A 
ATOM      7 Cl   INB d   0      -7.715  -6.219  27.772  0.00  0.00    -0.082 Cl
ATOM      8  O3  INB d   0      -3.705 -10.117  25.828  0.00  0.00    -0.188 OA
ENDROOT
BRANCH   3   9
ATOM      9  C5  INB d   0      -4.009  -7.615  24.379  0.00  0.00     0.101 C 
ATOM     10  N2  INB d   0      -2.825  -7.152  24.413  0.00  0.00    -0.244 NA
BRANCH  10  11
ATOM     11  C6  INB d   0      -2.599  -5.785  24.187  0.00  0.00     0.077 A 
ATOM     12  C9  INB d   0      -2.391  -4.924  25.293  0.00  0.00    -0.004 A 
ATOM     13  C11 INB d   0      -2.140  -3.551  25.083  0.00  0.00    -0.003 A 
ATOM     14  C14 INB d   0      -2.436  -5.458  26.716  0.00  0.00     0.033 C 
ATOM     15  C13 INB d   0      -2.089  -3.027  23.779  0.00  0.00    -0.004 A 
ATOM     16  C12 INB d   0      -2.281  -3.874  22.671  0.00  0.00    -0.020 A 
ATOM     17  C15 INB d   0      -2.214  -3.316  21.264  0.00  0.00     0.031 C 
ATOM     18  C10 INB d   0      -2.528  -5.246  22.877  0.00  0.00     0.015 A 
ENDBRANCH  10  11
ENDBRANCH   3   9
BRANCH   1  19
ATOM     19  N1  INB d   0      -5.317 -10.803  28.116  0.00  0.00    -0.112 N 
ATOM     20  O2  INB d   0      -4.853 -10.760  29.253  0.00  0.00    -0.532 OA
ATOM     21  O1  INB d   0      -5.716 -11.830  27.577  0.00  0.00    -0.532 OA
ENDBRANCH   1  19
TORSDOF 3
ENDMDL
MODEL 8
REMARK VINA RESULT:    -6.747      4.370      7.712
REMARK INTER + INTRA:          -8.596
REMARK INTER:                  -7.898
REMARK INTRA:                  -0.697
REMARK UNBOUND:                -0.665
REMARK  3 active torsions:
REMARK  status: ('A' for Active; 'I' for Inactive)
REMARK    1  A    between atoms: C1_1  and  N1_19 
REMARK    2  A    between atoms: C5_9  and  C3_3 
REMARK    3  A    between atoms: C6_11  and  N2_10 
ROOT
ATOM      1  C1  INB d   0      -5.119  -6.969  26.169  0.00  0.00     0.153 A 
ATOM      2  C2  INB d   0      -4.970  -8.382  26.206  0.00  0.00     0.154 A 
ATOM      3  C3  INB d   0      -5.463  -9.126  27.316  0.00  0.00     0.047 A 
ATOM      4  C4  INB d   0      -5.777  -6.311  27.229  0.00  0.00     0.037 A 
ATOM      5  C7  INB d   0      -6.109  -8.435  28.367  0.00  0.00     0.015 A 
ATOM      6  C8  INB d   0      -6.268  -7.039  28.324  0.00  0.00     0.060 A 
ATOM      7 Cl   INB d   0      -7.064  -6.221  29.618  0.00  0.00    -0.082 Cl
ATOM      8  O3  INB d   0      -4.369  -9.025  25.154  0.00  0.00    -0.188 OA
ENDROOT
BRANCH   3   9
ATOM      9  C5  INB d   0      -5.324 -10.607  27.399  0.00  0.00     0.101 C 
ATOM     10  N2  INB d   0      -4.944 -11.245  28.431  0.00  0.00    -0.244 NA
BRANCH  10  11
ATOM     11  C6  INB d   0      -3.639 -11.758  28.499  0.00  0.00     0.077 A 
ATOM     12  C9  INB d   0      -3.192 -12.362  29.700  0.00  0.00    -0.004 A 
ATOM     13  C11 INB d   0      -1.892 -12.903  29.779  0.00  0.00    -0.003 A 
ATOM     14  C14 INB d   0      -4.098 -12.433  30.920  0.00  0.00     0.033 C 
ATOM     15  C13 INB d   0      -1.032 -12.855  28.667  0.00  0.00    -0.004 A 
ATOM     16  C12 INB d   0      -1.468 -12.272  27.463  0.00  0.00    -0.020 A 
ATOM     17  C15 INB d   0      -0.550 -12.229  26.259  0.00  0.00     0.031 C 
ATOM     18  C10 INB d   0      -2.767 -11.732  27.381  0.00  0.00     0.015 A 
ENDBRANCH  10  11
ENDBRANCH   3   9
BRANCH   1  19
ATOM     19  N1  INB d   0      -4.616  -6.155  25.048  0.00  0.00    -0.112 N 
ATOM     20  O2  INB d   0      -5.425  -5.823  24.186  0.00  0.00    -0.532 OA
ATOM     21  O1  INB d   0      -3.438  -5.813  25.051  0.00  0.00    -0.532 OA
ENDBRANCH   1  19
TORSDOF 3
ENDMDL
MODEL 9
REMARK VINA RESULT:    -6.727      2.920      7.088
REMARK INTER + INTRA:          -8.573
REMARK INTER:                  -7.969
REMARK INTRA:                  -0.604
REMARK UNBOUND:                -0.665
REMARK  3 active torsions:
REMARK  status: ('A' for Active; 'I' for Inactive)
REMARK    1  A    between atoms: C1_1  and  N1_19 
REMARK    2  A    between atoms: C5_9  and  C3_3 
REMARK    3  A    between atoms: C6_11  and  N2_10 
ROOT
ATOM      1  C1  INB d   0      -2.794  -5.275  22.939  0.00  0.00     0.153 A 
ATOM      2  C2  INB d   0      -4.009  -5.862  23.386  0.00  0.00     0.154 A 
ATOM      3  C3  INB d   0      -4.283  -5.970  24.779  0.00  0.00     0.047 A 
ATOM      4  C4  INB d   0      -1.871  -4.780  23.884  0.00  0.00     0.037 A 
ATOM      5  C7  INB d   0      -3.332  -5.474  25.701  0.00  0.00     0.015 A 
ATOM      6  C8  INB d   0      -2.137  -4.881  25.259  0.00  0.00     0.060 A 
ATOM      7 Cl   INB d   0      -0.996  -4.279  26.405  0.00  0.00    -0.082 Cl
ATOM      8  O3  INB d   0      -4.924  -6.302  22.464  0.00  0.00    -0.188 OA
ENDROOT
BRANCH   3   9
ATOM      9  C5  INB d   0      -5.540  -6.583  25.291  0.00  0.00     0.101 C 
ATOM     10  N2  INB d   0      -5.790  -6.814  26.517  0.00  0.00    -0.244 NA
BRANCH  10  11
ATOM     11  C6  INB d   0      -5.701  -8.124  27.016  0.00  0.00     0.077 A 
ATOM     12  C9  INB d   0      -6.606  -8.545  28.022  0.00  0.00    -0.004 A 
ATOM     13  C11 INB d   0      -6.546  -9.864  28.519  0.00  0.00    -0.003 A 
ATOM     14  C14 INB d   0      -7.647  -7.589  28.584  0.00  0.00     0.033 C 
ATOM     15  C13 INB d   0      -5.597 -10.772  28.018  0.00  0.00    -0.004 A 
ATOM     16  C12 INB d   0      -4.702 -10.371  27.008  0.00  0.00    -0.020 A 
ATOM     17  C15 INB d   0      -3.686 -11.350  26.456  0.00  0.00     0.031 C 
ATOM     18  C10 INB d   0      -4.760  -9.055  26.508  0.00  0.00     0.015 A 
ENDBRANCH  10  11
ENDBRANCH   3   9
BRANCH   1  19
ATOM     19  N1  INB d   0      -2.461  -5.151  21.509  0.00  0.00    -0.112 N 
ATOM     20  O2  INB d   0      -2.503  -4.027  21.016  0.00  0.00    -0.532 OA
ATOM     21  O1  INB d   0      -2.117  -6.156  20.895  0.00  0.00    -0.532 OA
ENDBRANCH   1  19
TORSDOF 3
ENDMDL
MODEL 10
REMARK VINA RESULT:    -6.580      5.408      7.602
REMARK INTER + INTRA:          -8.399
REMARK INTER:                  -7.617
REMARK INTRA:                  -0.782
REMARK UNBOUND:                -0.665
REMARK  3 active torsions:
REMARK  status: ('A' for Active; 'I' for Inactive)
REMARK    1  A    between atoms: C1_1  and  N1_19 
REMARK    2  A    between atoms: C5_9  and  C3_3 
REMARK    3  A    between atoms: C6_11  and  N2_10 
ROOT
ATOM      1  C1  INB d   0      -2.123 -12.898  29.978  0.00  0.00     0.153 A 
ATOM      2  C2  INB d   0      -3.406 -12.308  29.820  0.00  0.00     0.154 A 
ATOM      3  C3  INB d   0      -3.793 -11.760  28.564  0.00  0.00     0.047 A 
ATOM      4  C4  INB d   0      -1.243 -12.957  28.877  0.00  0.00     0.037 A 
ATOM      5  C7  INB d   0      -2.883 -11.825  27.483  0.00  0.00     0.015 A 
ATOM      6  C8  INB d   0      -1.620 -12.421  27.636  0.00  0.00     0.060 A 
ATOM      7 Cl   INB d   0      -0.531 -12.492  26.299  0.00  0.00    -0.082 Cl
ATOM      8  O3  INB d   0      -4.276 -12.292  30.880  0.00  0.00    -0.188 OA
ENDROOT
BRANCH   3   9
ATOM      9  C5  INB d   0      -5.125 -11.127  28.355  0.00  0.00     0.101 C 
ATOM     10  N2  INB d   0      -5.471 -10.489  27.311  0.00  0.00    -0.244 NA
BRANCH  10  11
ATOM     11  C6  INB d   0      -5.519  -9.086  27.330  0.00  0.00     0.077 A 
ATOM     12  C9  INB d   0      -4.809  -8.354  26.346  0.00  0.00    -0.004 A 
ATOM     13  C11 INB d   0      -4.865  -6.944  26.337  0.00  0.00    -0.003 A 
ATOM     14  C14 INB d   0      -3.979  -9.069  25.291  0.00  0.00     0.033 C 
ATOM     15  C13 INB d   0      -5.627  -6.254  27.297  0.00  0.00    -0.004 A 
ATOM     16  C12 INB d   0      -6.347  -6.970  28.271  0.00  0.00    -0.020 A 
ATOM     17  C15 INB d   0      -7.180  -6.231  29.299  0.00  0.00     0.031 C 
ATOM     18  C10 INB d   0      -6.296  -8.378  28.282  0.00  0.00     0.015 A 
ENDBRANCH  10  11
ENDBRANCH   3   9
BRANCH   1  19
ATOM     19  N1  INB d   0      -1.673 -13.469  31.261  0.00  0.00    -0.112 N 
ATOM     20  O2  INB d   0      -1.068 -12.724  32.027  0.00  0.00    -0.532 OA
ATOM     21  O1  INB d   0      -1.959 -14.633  31.520  0.00  0.00    -0.532 OA
ENDBRANCH   1  19
TORSDOF 3
ENDMDL
