MODEL 1
REMARK VINA RESULT:    -7.077      0.000      0.000
REMARK INTER + INTRA:         -11.492
REMARK INTER:                 -10.180
REMARK INTRA:                  -1.312
REMARK UNBOUND:                -1.312
REMARK  8 active torsions:
REMARK  status: ('A' for Active; 'I' for Inactive)
REMARK       I    between atoms: N3_2  and  C2_1 
REMARK    1  A    between atoms: C2_1  and  C8_5 
REMARK    2  A    between atoms: N2_18  and  N3_2 
REMARK    3  A    between atoms: C8_5  and  O3_6 
REMARK    4  A    between atoms: O3_6  and  C3_7 
REMARK    5  A    between atoms: N1_13  and  C1_8 
REMARK    6  A    between atoms: C10_10  and  C14_16 
REMARK    7  A    between atoms: C5_20  and  C7_19 
REMARK    8  A    between atoms: C6_21  and  O5_26 
ROOT
ATOM      1  C2  INB d   0      -7.487  -6.362  28.475  0.00  0.00     0.280 C 
ATOM      2  N3  INB d   0      -6.522  -5.942  29.311  0.00  0.00    -0.244 N 
ATOM      3  O4  INB d   0      -8.460  -7.022  28.836  0.00  0.00    -0.268 OA
ATOM      4  H2  INB d   0      -5.691  -5.496  28.945  0.00  0.00     0.192 HD
ENDROOT
BRANCH   1   5
ATOM      5  C8  INB d   0      -7.327  -5.993  26.998  0.00  0.00     0.237 C 
BRANCH   5   6
ATOM      6  O3  INB d   0      -5.944  -5.856  26.698  0.00  0.00    -0.319 OA
BRANCH   6   7
ATOM      7  C3  INB d   0      -5.334  -6.823  25.929  0.00  0.00     0.117 A 
ATOM      8  C1  INB d   0      -4.507  -7.779  26.578  0.00  0.00     0.148 A 
ATOM      9  C4  INB d   0      -3.839  -8.758  25.807  0.00  0.00     0.021 A 
ATOM     10  C10 INB d   0      -3.989  -8.804  24.408  0.00  0.00    -0.020 A 
ATOM     11  C11 INB d   0      -4.810  -7.859  23.766  0.00  0.00    -0.002 A 
ATOM     12  C9  INB d   0      -5.475  -6.875  24.520  0.00  0.00     0.026 A 
BRANCH   8  13
ATOM     13  N1  INB d   0      -4.331  -7.778  28.044  0.00  0.00    -0.112 N 
ATOM     14  O2  INB d   0      -4.924  -8.638  28.689  0.00  0.00    -0.532 OA
ATOM     15  O1  INB d   0      -3.626  -6.914  28.556  0.00  0.00    -0.532 OA
ENDBRANCH   8  13
BRANCH  10  16
ATOM     16  C14 INB d   0      -3.263  -9.861  23.597  0.00  0.00     0.026 C 
ATOM     17  C15 INB d   0      -2.898 -11.088  24.440  0.00  0.00     0.005 C 
ENDBRANCH  10  16
ENDBRANCH   6   7
ENDBRANCH   5   6
ENDBRANCH   1   5
BRANCH   2  18
ATOM     18  N2  INB d   0      -6.578  -6.054  30.654  0.00  0.00    -0.169 NA
ATOM     19  C7  INB d   0      -6.828  -4.974  31.302  0.00  0.00     0.122 C 
BRANCH  19  20
ATOM     20  C5  INB d   0      -7.238  -4.973  32.722  0.00  0.00     0.043 A 
ATOM     21  C12 INB d   0      -8.484  -4.424  33.110  0.00  0.00     0.004 A 
ATOM     22  C16 INB d   0      -8.880  -4.422  34.461  0.00  0.00     0.000 A 
ATOM     23  C17 INB d   0      -8.034  -4.966  35.443  0.00  0.00     0.002 A 
ATOM     24  C13 INB d   0      -6.794  -5.516  35.072  0.00  0.00     0.024 A 
ATOM     25  C6  INB d   0      -6.392  -5.522  33.720  0.00  0.00     0.091 A 
BRANCH  25  26
ATOM     26  O5  INB d   0      -5.175  -6.066  33.410  0.00  0.00    -0.359 OA
ATOM     27  H8  INB d   0      -5.094  -6.972  33.668  0.00  0.00     0.217 HD
ENDBRANCH  25  26
ENDBRANCH  19  20
ENDBRANCH   2  18
TORSDOF 8
ENDMDL
MODEL 2
REMARK VINA RESULT:    -6.904      4.520      8.028
REMARK INTER + INTRA:         -11.243
REMARK INTER:                  -9.628
REMARK INTRA:                  -1.615
REMARK UNBOUND:                -1.312
REMARK  8 active torsions:
REMARK  status: ('A' for Active; 'I' for Inactive)
REMARK       I    between atoms: N3_2  and  C2_1 
REMARK    1  A    between atoms: C2_1  and  C8_5 
REMARK    2  A    between atoms: N2_18  and  N3_2 
REMARK    3  A    between atoms: C8_5  and  O3_6 
REMARK    4  A    between atoms: O3_6  and  C3_7 
REMARK    5  A    between atoms: N1_13  and  C1_8 
REMARK    6  A    between atoms: C10_10  and  C14_16 
REMARK    7  A    between atoms: C5_20  and  C7_19 
REMARK    8  A    between atoms: C6_21  and  O5_26 
ROOT
ATOM      1  C2  INB d   0      -6.625  -5.866  25.200  0.00  0.00     0.280 C 
ATOM      2  N3  INB d   0      -5.458  -5.224  25.023  0.00  0.00    -0.244 N 
ATOM      3  O4  INB d   0      -7.395  -6.146  24.281  0.00  0.00    -0.268 OA
ATOM      4  H2  INB d   0      -4.916  -4.924  25.823  0.00  0.00     0.192 HD
ENDROOT
BRANCH   1   5
ATOM      5  C8  INB d   0      -6.992  -6.244  26.637  0.00  0.00     0.237 C 
BRANCH   5   6
ATOM      6  O3  INB d   0      -5.817  -6.647  27.329  0.00  0.00    -0.319 OA
BRANCH   6   7
ATOM      7  C3  INB d   0      -5.526  -7.992  27.413  0.00  0.00     0.117 A 
ATOM      8  C1  INB d   0      -4.407  -8.486  26.692  0.00  0.00     0.148 A 
ATOM      9  C4  INB d   0      -4.110  -9.868  26.729  0.00  0.00     0.021 A 
ATOM     10  C10 INB d   0      -4.902 -10.758  27.478  0.00  0.00    -0.020 A 
ATOM     11  C11 INB d   0      -6.009 -10.268  28.195  0.00  0.00    -0.002 A 
ATOM     12  C9  INB d   0      -6.320  -8.896  28.160  0.00  0.00     0.026 A 
BRANCH   8  13
ATOM     13  N1  INB d   0      -3.538  -7.587  25.903  0.00  0.00    -0.112 N 
ATOM     14  O2  INB d   0      -3.436  -7.806  24.700  0.00  0.00    -0.532 OA
ATOM     15  O1  INB d   0      -2.943  -6.683  26.481  0.00  0.00    -0.532 OA
ENDBRANCH   8  13
BRANCH  10  16
ATOM     16  C14 INB d   0      -4.570 -12.238  27.506  0.00  0.00     0.026 C 
ATOM     17  C15 INB d   0      -3.063 -12.495  27.389  0.00  0.00     0.005 C 
ENDBRANCH  10  16
ENDBRANCH   6   7
ENDBRANCH   5   6
ENDBRANCH   1   5
BRANCH   2  18
ATOM     18  N2  INB d   0      -4.917  -4.949  23.819  0.00  0.00    -0.169 NA
ATOM     19  C7  INB d   0      -3.718  -4.490  23.827  0.00  0.00     0.122 C 
BRANCH  19  20
ATOM     20  C5  INB d   0      -2.875  -4.442  22.615  0.00  0.00     0.043 A 
ATOM     21  C12 INB d   0      -2.224  -3.241  22.238  0.00  0.00     0.004 A 
ATOM     22  C16 INB d   0      -1.419  -3.190  21.085  0.00  0.00     0.000 A 
ATOM     23  C17 INB d   0      -1.255  -4.338  20.290  0.00  0.00     0.002 A 
ATOM     24  C13 INB d   0      -1.893  -5.537  20.652  0.00  0.00     0.024 A 
ATOM     25  C6  INB d   0      -2.701  -5.596  21.807  0.00  0.00     0.091 A 
BRANCH  25  26
ATOM     26  O5  INB d   0      -3.302  -6.785  22.116  0.00  0.00    -0.359 OA
ATOM     27  H8  INB d   0      -3.329  -6.960  23.044  0.00  0.00     0.217 HD
ENDBRANCH  25  26
ENDBRANCH  19  20
ENDBRANCH   2  18
TORSDOF 8
ENDMDL
MODEL 3
REMARK VINA RESULT:    -6.817      1.440      1.846
REMARK INTER + INTRA:         -11.118
REMARK INTER:                  -9.854
REMARK INTRA:                  -1.264
REMARK UNBOUND:                -1.312
REMARK  8 active torsions:
REMARK  status: ('A' for Active; 'I' for Inactive)
REMARK       I    between atoms: N3_2  and  C2_1 
REMARK    1  A    between atoms: C2_1  and  C8_5 
REMARK    2  A    between atoms: N2_18  and  N3_2 
REMARK    3  A    between atoms: C8_5  and  O3_6 
REMARK    4  A    between atoms: O3_6  and  C3_7 
REMARK    5  A    between atoms: N1_13  and  C1_8 
REMARK    6  A    between atoms: C10_10  and  C14_16 
REMARK    7  A    between atoms: C5_20  and  C7_19 
REMARK    8  A    between atoms: C6_21  and  O5_26 
ROOT
ATOM      1  C2  INB d   0      -7.383  -6.445  28.370  0.00  0.00     0.280 C 
ATOM      2  N3  INB d   0      -6.400  -6.179  29.247  0.00  0.00    -0.244 N 
ATOM      3  O4  INB d   0      -8.483  -6.892  28.695  0.00  0.00    -0.268 OA
ATOM      4  H2  INB d   0      -5.481  -5.916  28.917  0.00  0.00     0.192 HD
ENDROOT
BRANCH   1   5
ATOM      5  C8  INB d   0      -7.078  -6.180  26.894  0.00  0.00     0.237 C 
BRANCH   5   6
ATOM      6  O3  INB d   0      -6.373  -7.292  26.356  0.00  0.00    -0.319 OA
BRANCH   6   7
ATOM      7  C3  INB d   0      -5.404  -7.064  25.403  0.00  0.00     0.117 A 
ATOM      8  C1  INB d   0      -4.049  -6.992  25.824  0.00  0.00     0.148 A 
ATOM      9  C4  INB d   0      -3.038  -6.719  24.874  0.00  0.00     0.021 A 
ATOM     10  C10 INB d   0      -3.356  -6.528  23.515  0.00  0.00    -0.020 A 
ATOM     11  C11 INB d   0      -4.697  -6.602  23.098  0.00  0.00    -0.002 A 
ATOM     12  C9  INB d   0      -5.714  -6.865  24.035  0.00  0.00     0.026 A 
BRANCH   8  13
ATOM     13  N1  INB d   0      -3.667  -7.200  27.236  0.00  0.00    -0.112 N 
ATOM     14  O2  INB d   0      -3.651  -6.218  27.972  0.00  0.00    -0.532 OA
ATOM     15  O1  INB d   0      -3.363  -8.330  27.607  0.00  0.00    -0.532 OA
ENDBRANCH   8  13
BRANCH  10  16
ATOM     16  C14 INB d   0      -2.259  -6.235  22.509  0.00  0.00     0.026 C 
ATOM     17  C15 INB d   0      -2.820  -5.863  21.132  0.00  0.00     0.005 C 
ENDBRANCH  10  16
ENDBRANCH   6   7
ENDBRANCH   5   6
ENDBRANCH   1   5
BRANCH   2  18
ATOM     18  N2  INB d   0      -6.548  -6.217  30.587  0.00  0.00    -0.169 NA
ATOM     19  C7  INB d   0      -6.674  -5.083  31.176  0.00  0.00     0.122 C 
BRANCH  19  20
ATOM     20  C5  INB d   0      -7.159  -4.957  32.566  0.00  0.00     0.043 A 
ATOM     21  C12 INB d   0      -8.398  -4.328  32.842  0.00  0.00     0.004 A 
ATOM     22  C16 INB d   0      -8.865  -4.205  34.164  0.00  0.00     0.000 A 
ATOM     23  C17 INB d   0      -8.097  -4.707  35.230  0.00  0.00     0.002 A 
ATOM     24  C13 INB d   0      -6.866  -5.334  34.972  0.00  0.00     0.024 A 
ATOM     25  C6  INB d   0      -6.393  -5.461  33.649  0.00  0.00     0.091 A 
BRANCH  25  26
ATOM     26  O5  INB d   0      -5.188  -6.078  33.450  0.00  0.00    -0.359 OA
ATOM     27  H8  INB d   0      -4.818  -6.439  34.240  0.00  0.00     0.217 HD
ENDBRANCH  25  26
ENDBRANCH  19  20
ENDBRANCH   2  18
TORSDOF 8
ENDMDL
MODEL 4
REMARK VINA RESULT:    -6.808      4.848      9.563
REMARK INTER + INTRA:         -11.105
REMARK INTER:                 -10.437
REMARK INTRA:                  -0.668
REMARK UNBOUND:                -1.312
REMARK  8 active torsions:
REMARK  status: ('A' for Active; 'I' for Inactive)
REMARK       I    between atoms: N3_2  and  C2_1 
REMARK    1  A    between atoms: C2_1  and  C8_5 
REMARK    2  A    between atoms: N2_18  and  N3_2 
REMARK    3  A    between atoms: C8_5  and  O3_6 
REMARK    4  A    between atoms: O3_6  and  C3_7 
REMARK    5  A    between atoms: N1_13  and  C1_8 
REMARK    6  A    between atoms: C10_10  and  C14_16 
REMARK    7  A    between atoms: C5_20  and  C7_19 
REMARK    8  A    between atoms: C6_21  and  O5_26 
ROOT
ATOM      1  C2  INB d   0      -4.215  -6.062  23.458  0.00  0.00     0.280 C 
ATOM      2  N3  INB d   0      -3.610  -6.674  22.426  0.00  0.00    -0.244 N 
ATOM      3  O4  INB d   0      -3.769  -5.056  24.010  0.00  0.00    -0.268 OA
ATOM      4  H2  INB d   0      -3.962  -7.557  22.081  0.00  0.00     0.192 HD
ENDROOT
BRANCH   1   5
ATOM      5  C8  INB d   0      -5.520  -6.685  23.959  0.00  0.00     0.237 C 
BRANCH   5   6
ATOM      6  O3  INB d   0      -5.607  -6.516  25.369  0.00  0.00    -0.319 OA
BRANCH   6   7
ATOM      7  C3  INB d   0      -5.548  -7.633  26.174  0.00  0.00     0.117 A 
ATOM      8  C1  INB d   0      -6.429  -7.710  27.286  0.00  0.00     0.148 A 
ATOM      9  C4  INB d   0      -6.362  -8.826  28.151  0.00  0.00     0.021 A 
ATOM     10  C10 INB d   0      -5.441  -9.866  27.921  0.00  0.00    -0.020 A 
ATOM     11  C11 INB d   0      -4.570  -9.790  26.819  0.00  0.00    -0.002 A 
ATOM     12  C9  INB d   0      -4.621  -8.681  25.954  0.00  0.00     0.026 A 
BRANCH   8  13
ATOM     13  N1  INB d   0      -7.422  -6.650  27.559  0.00  0.00    -0.112 N 
ATOM     14  O2  INB d   0      -8.451  -6.649  26.890  0.00  0.00    -0.532 OA
ATOM     15  O1  INB d   0      -7.171  -5.811  28.418  0.00  0.00    -0.532 OA
ENDBRANCH   8  13
BRANCH  10  16
ATOM     16  C14 INB d   0      -5.382 -11.056  28.860  0.00  0.00     0.026 C 
ATOM     17  C15 INB d   0      -4.116 -11.896  28.652  0.00  0.00     0.005 C 
ENDBRANCH  10  16
ENDBRANCH   6   7
ENDBRANCH   5   6
ENDBRANCH   1   5
BRANCH   2  18
ATOM     18  N2  INB d   0      -2.539  -6.180  21.772  0.00  0.00    -0.169 NA
ATOM     19  C7  INB d   0      -2.762  -5.188  20.987  0.00  0.00     0.122 C 
BRANCH  19  20
ATOM     20  C5  INB d   0      -1.679  -4.336  20.454  0.00  0.00     0.043 A 
ATOM     21  C12 INB d   0      -1.474  -3.030  20.964  0.00  0.00     0.004 A 
ATOM     22  C16 INB d   0      -0.445  -2.213  20.459  0.00  0.00     0.000 A 
ATOM     23  C17 INB d   0       0.394  -2.690  19.436  0.00  0.00     0.002 A 
ATOM     24  C13 INB d   0       0.203  -3.984  18.921  0.00  0.00     0.024 A 
ATOM     25  C6  INB d   0      -0.826  -4.808  19.422  0.00  0.00     0.091 A 
BRANCH  25  26
ATOM     26  O5  INB d   0      -0.973  -6.058  18.887  0.00  0.00    -0.359 OA
ATOM     27  H8  INB d   0      -0.667  -6.121  17.995  0.00  0.00     0.217 HD
ENDBRANCH  25  26
ENDBRANCH  19  20
ENDBRANCH   2  18
TORSDOF 8
ENDMDL
MODEL 5
REMARK VINA RESULT:    -6.735      1.433      2.198
REMARK INTER + INTRA:         -11.000
REMARK INTER:                 -10.320
REMARK INTRA:                  -0.679
REMARK UNBOUND:                -1.312
REMARK  8 active torsions:
REMARK  status: ('A' for Active; 'I' for Inactive)
REMARK       I    between atoms: N3_2  and  C2_1 
REMARK    1  A    between atoms: C2_1  and  C8_5 
REMARK    2  A    between atoms: N2_18  and  N3_2 
REMARK    3  A    between atoms: C8_5  and  O3_6 
REMARK    4  A    between atoms: O3_6  and  C3_7 
REMARK    5  A    between atoms: N1_13  and  C1_8 
REMARK    6  A    between atoms: C10_10  and  C14_16 
REMARK    7  A    between atoms: C5_20  and  C7_19 
REMARK    8  A    between atoms: C6_21  and  O5_26 
ROOT
ATOM      1  C2  INB d   0      -7.490  -6.319  28.350  0.00  0.00     0.280 C 
ATOM      2  N3  INB d   0      -6.792  -5.820  29.384  0.00  0.00    -0.244 N 
ATOM      3  O4  INB d   0      -8.499  -7.012  28.480  0.00  0.00    -0.268 OA
ATOM      4  H2  INB d   0      -5.912  -5.348  29.223  0.00  0.00     0.192 HD
ENDROOT
BRANCH   1   5
ATOM      5  C8  INB d   0      -6.966  -6.000  26.948  0.00  0.00     0.237 C 
BRANCH   5   6
ATOM      6  O3  INB d   0      -5.546  -6.092  26.948  0.00  0.00    -0.319 OA
BRANCH   6   7
ATOM      7  C3  INB d   0      -4.960  -7.275  26.552  0.00  0.00     0.117 A 
ATOM      8  C1  INB d   0      -4.603  -7.426  25.185  0.00  0.00     0.148 A 
ATOM      9  C4  INB d   0      -4.036  -8.644  24.744  0.00  0.00     0.021 A 
ATOM     10  C10 INB d   0      -3.811  -9.705  25.643  0.00  0.00    -0.020 A 
ATOM     11  C11 INB d   0      -4.162  -9.553  26.997  0.00  0.00    -0.002 A 
ATOM     12  C9  INB d   0      -4.734  -8.349  27.447  0.00  0.00     0.026 A 
BRANCH   8  13
ATOM     13  N1  INB d   0      -4.807  -6.336  24.209  0.00  0.00    -0.112 N 
ATOM     14  O2  INB d   0      -3.928  -5.484  24.116  0.00  0.00    -0.532 OA
ATOM     15  O1  INB d   0      -5.845  -6.313  23.555  0.00  0.00    -0.532 OA
ENDBRANCH   8  13
BRANCH  10  16
ATOM     16  C14 INB d   0      -3.203 -11.005  25.152  0.00  0.00     0.026 C 
ATOM     17  C15 INB d   0      -3.020 -11.020  23.630  0.00  0.00     0.005 C 
ENDBRANCH  10  16
ENDBRANCH   6   7
ENDBRANCH   5   6
ENDBRANCH   1   5
BRANCH   2  18
ATOM     18  N2  INB d   0      -7.192  -5.882  30.670  0.00  0.00    -0.169 NA
ATOM     19  C7  INB d   0      -6.523  -5.173  31.506  0.00  0.00     0.122 C 
BRANCH  19  20
ATOM     20  C5  INB d   0      -7.012  -4.875  32.869  0.00  0.00     0.043 A 
ATOM     21  C12 INB d   0      -8.400  -4.751  33.123  0.00  0.00     0.004 A 
ATOM     22  C16 INB d   0      -8.871  -4.468  34.419  0.00  0.00     0.000 A 
ATOM     23  C17 INB d   0      -7.961  -4.302  35.478  0.00  0.00     0.002 A 
ATOM     24  C13 INB d   0      -6.581  -4.423  35.241  0.00  0.00     0.024 A 
ATOM     25  C6  INB d   0      -6.102  -4.707  33.945  0.00  0.00     0.091 A 
BRANCH  25  26
ATOM     26  O5  INB d   0      -4.750  -4.814  33.764  0.00  0.00    -0.359 OA
ATOM     27  H8  INB d   0      -4.262  -4.120  34.179  0.00  0.00     0.217 HD
ENDBRANCH  25  26
ENDBRANCH  19  20
ENDBRANCH   2  18
TORSDOF 8
ENDMDL
MODEL 6
REMARK VINA RESULT:    -6.653      4.038      8.431
REMARK INTER + INTRA:         -10.882
REMARK INTER:                 -10.194
REMARK INTRA:                  -0.689
REMARK UNBOUND:                -1.312
REMARK  8 active torsions:
REMARK  status: ('A' for Active; 'I' for Inactive)
REMARK       I    between atoms: N3_2  and  C2_1 
REMARK    1  A    between atoms: C2_1  and  C8_5 
REMARK    2  A    between atoms: N2_18  and  N3_2 
REMARK    3  A    between atoms: C8_5  and  O3_6 
REMARK    4  A    between atoms: O3_6  and  C3_7 
REMARK    5  A    between atoms: N1_13  and  C1_8 
REMARK    6  A    between atoms: C10_10  and  C14_16 
REMARK    7  A    between atoms: C5_20  and  C7_19 
REMARK    8  A    between atoms: C6_21  and  O5_26 
ROOT
ATOM      1  C2  INB d   0      -2.547  -8.546  23.985  0.00  0.00     0.280 C 
ATOM      2  N3  INB d   0      -3.042  -7.761  23.014  0.00  0.00    -0.244 N 
ATOM      3  O4  INB d   0      -1.502  -8.305  24.588  0.00  0.00    -0.268 OA
ATOM      4  H2  INB d   0      -3.847  -8.060  22.478  0.00  0.00     0.192 HD
ENDROOT
BRANCH   1   5
ATOM      5  C8  INB d   0      -3.344  -9.807  24.324  0.00  0.00     0.237 C 
BRANCH   5   6
ATOM      6  O3  INB d   0      -3.422  -9.944  25.738  0.00  0.00    -0.319 OA
BRANCH   6   7
ATOM      7  C3  INB d   0      -4.408  -9.260  26.417  0.00  0.00     0.117 A 
ATOM      8  C1  INB d   0      -5.193  -9.972  27.363  0.00  0.00     0.148 A 
ATOM      9  C4  INB d   0      -6.236  -9.304  28.044  0.00  0.00     0.021 A 
ATOM     10  C10 INB d   0      -6.502  -7.942  27.804  0.00  0.00    -0.020 A 
ATOM     11  C11 INB d   0      -5.722  -7.237  26.869  0.00  0.00    -0.002 A 
ATOM     12  C9  INB d   0      -4.685  -7.892  26.178  0.00  0.00     0.026 A 
BRANCH   8  13
ATOM     13  N1  INB d   0      -4.942 -11.398  27.658  0.00  0.00    -0.112 N 
ATOM     14  O2  INB d   0      -5.535 -12.231  26.981  0.00  0.00    -0.532 OA
ATOM     15  O1  INB d   0      -4.176 -11.687  28.573  0.00  0.00    -0.532 OA
ENDBRANCH   8  13
BRANCH  10  16
ATOM     16  C14 INB d   0      -7.626  -7.242  28.543  0.00  0.00     0.026 C 
ATOM     17  C15 INB d   0      -7.103  -6.198  29.538  0.00  0.00     0.005 C 
ENDBRANCH  10  16
ENDBRANCH   6   7
ENDBRANCH   5   6
ENDBRANCH   1   5
BRANCH   2  18
ATOM     18  N2  INB d   0      -2.549  -6.548  22.691  0.00  0.00    -0.169 NA
ATOM     19  C7  INB d   0      -3.355  -5.556  22.817  0.00  0.00     0.122 C 
BRANCH  19  20
ATOM     20  C5  INB d   0      -2.896  -4.152  22.819  0.00  0.00     0.043 A 
ATOM     21  C12 INB d   0      -3.187  -3.302  23.915  0.00  0.00     0.004 A 
ATOM     22  C16 INB d   0      -2.752  -1.963  23.923  0.00  0.00     0.000 A 
ATOM     23  C17 INB d   0      -2.021  -1.454  22.834  0.00  0.00     0.002 A 
ATOM     24  C13 INB d   0      -1.725  -2.286  21.740  0.00  0.00     0.024 A 
ATOM     25  C6  INB d   0      -2.157  -3.629  21.726  0.00  0.00     0.091 A 
BRANCH  25  26
ATOM     26  O5  INB d   0      -1.845  -4.397  20.638  0.00  0.00    -0.359 OA
ATOM     27  H8  INB d   0      -1.196  -5.059  20.822  0.00  0.00     0.217 HD
ENDBRANCH  25  26
ENDBRANCH  19  20
ENDBRANCH   2  18
TORSDOF 8
ENDMDL
MODEL 7
REMARK VINA RESULT:    -6.626      4.455      9.029
REMARK INTER + INTRA:         -10.843
REMARK INTER:                  -9.173
REMARK INTRA:                  -1.671
REMARK UNBOUND:                -1.312
REMARK  8 active torsions:
REMARK  status: ('A' for Active; 'I' for Inactive)
REMARK       I    between atoms: N3_2  and  C2_1 
REMARK    1  A    between atoms: C2_1  and  C8_5 
REMARK    2  A    between atoms: N2_18  and  N3_2 
REMARK    3  A    between atoms: C8_5  and  O3_6 
REMARK    4  A    between atoms: O3_6  and  C3_7 
REMARK    5  A    between atoms: N1_13  and  C1_8 
REMARK    6  A    between atoms: C10_10  and  C14_16 
REMARK    7  A    between atoms: C5_20  and  C7_19 
REMARK    8  A    between atoms: C6_21  and  O5_26 
ROOT
ATOM      1  C2  INB d   0      -2.428  -7.846  23.681  0.00  0.00     0.280 C 
ATOM      2  N3  INB d   0      -2.592  -6.949  22.695  0.00  0.00    -0.244 N 
ATOM      3  O4  INB d   0      -1.530  -7.779  24.520  0.00  0.00    -0.268 OA
ATOM      4  H2  INB d   0      -3.279  -7.110  21.970  0.00  0.00     0.192 HD
ENDROOT
BRANCH   1   5
ATOM      5  C8  INB d   0      -3.420  -9.011  23.725  0.00  0.00     0.237 C 
BRANCH   5   6
ATOM      6  O3  INB d   0      -4.706  -8.516  24.078  0.00  0.00    -0.319 OA
BRANCH   6   7
ATOM      7  C3  INB d   0      -4.918  -8.089  25.372  0.00  0.00     0.117 A 
ATOM      8  C1  INB d   0      -5.479  -6.800  25.572  0.00  0.00     0.148 A 
ATOM      9  C4  INB d   0      -5.671  -6.321  26.889  0.00  0.00     0.021 A 
ATOM     10  C10 INB d   0      -5.322  -7.109  28.003  0.00  0.00    -0.020 A 
ATOM     11  C11 INB d   0      -4.768  -8.387  27.804  0.00  0.00    -0.002 A 
ATOM     12  C9  INB d   0      -4.565  -8.872  26.498  0.00  0.00     0.026 A 
BRANCH   8  13
ATOM     13  N1  INB d   0      -5.874  -5.944  24.434  0.00  0.00    -0.112 N 
ATOM     14  O2  INB d   0      -5.019  -5.207  23.954  0.00  0.00    -0.532 OA
ATOM     15  O1  INB d   0      -7.034  -5.988  24.035  0.00  0.00    -0.532 OA
ENDBRANCH   8  13
BRANCH  10  16
ATOM     16  C14 INB d   0      -5.534  -6.579  29.408  0.00  0.00     0.026 C 
ATOM     17  C15 INB d   0      -6.991  -6.173  29.661  0.00  0.00     0.005 C 
ENDBRANCH  10  16
ENDBRANCH   6   7
ENDBRANCH   5   6
ENDBRANCH   1   5
BRANCH   2  18
ATOM     18  N2  INB d   0      -1.903  -5.793  22.596  0.00  0.00    -0.169 NA
ATOM     19  C7  INB d   0      -2.292  -4.978  21.684  0.00  0.00     0.122 C 
BRANCH  19  20
ATOM     20  C5  INB d   0      -1.870  -3.562  21.648  0.00  0.00     0.043 A 
ATOM     21  C12 INB d   0      -1.002  -3.096  20.630  0.00  0.00     0.004 A 
ATOM     22  C16 INB d   0      -0.597  -1.748  20.591  0.00  0.00     0.000 A 
ATOM     23  C17 INB d   0      -1.052  -0.848  21.571  0.00  0.00     0.002 A 
ATOM     24  C13 INB d   0      -1.914  -1.296  22.587  0.00  0.00     0.024 A 
ATOM     25  C6  INB d   0      -2.325  -2.645  22.631  0.00  0.00     0.091 A 
BRANCH  25  26
ATOM     26  O5  INB d   0      -3.163  -3.033  23.641  0.00  0.00    -0.359 OA
ATOM     27  H8  INB d   0      -3.981  -2.562  23.648  0.00  0.00     0.217 HD
ENDBRANCH  25  26
ENDBRANCH  19  20
ENDBRANCH   2  18
TORSDOF 8
ENDMDL
MODEL 8
REMARK VINA RESULT:    -6.608      4.858      9.878
REMARK INTER + INTRA:         -10.818
REMARK INTER:                 -10.294
REMARK INTRA:                  -0.523
REMARK UNBOUND:                -1.312
REMARK  8 active torsions:
REMARK  status: ('A' for Active; 'I' for Inactive)
REMARK       I    between atoms: N3_2  and  C2_1 
REMARK    1  A    between atoms: C2_1  and  C8_5 
REMARK    2  A    between atoms: N2_18  and  N3_2 
REMARK    3  A    between atoms: C8_5  and  O3_6 
REMARK    4  A    between atoms: O3_6  and  C3_7 
REMARK    5  A    between atoms: N1_13  and  C1_8 
REMARK    6  A    between atoms: C10_10  and  C14_16 
REMARK    7  A    between atoms: C5_20  and  C7_19 
REMARK    8  A    between atoms: C6_21  and  O5_26 
ROOT
ATOM      1  C2  INB d   0      -3.029  -7.875  23.469  0.00  0.00     0.280 C 
ATOM      2  N3  INB d   0      -3.094  -7.065  22.399  0.00  0.00    -0.244 N 
ATOM      3  O4  INB d   0      -2.012  -8.030  24.145  0.00  0.00    -0.268 OA
ATOM      4  H2  INB d   0      -3.921  -7.058  21.816  0.00  0.00     0.192 HD
ENDROOT
BRANCH   1   5
ATOM      5  C8  INB d   0      -4.302  -8.643  23.830  0.00  0.00     0.237 C 
BRANCH   5   6
ATOM      6  O3  INB d   0      -4.242  -9.033  25.196  0.00  0.00    -0.319 OA
BRANCH   6   7
ATOM      7  C3  INB d   0      -5.021  -8.359  26.112  0.00  0.00     0.117 A 
ATOM      8  C1  INB d   0      -5.389  -9.032  27.308  0.00  0.00     0.148 A 
ATOM      9  C4  INB d   0      -6.221  -8.377  28.246  0.00  0.00     0.021 A 
ATOM     10  C10 INB d   0      -6.680  -7.066  28.016  0.00  0.00    -0.020 A 
ATOM     11  C11 INB d   0      -6.312  -6.400  26.833  0.00  0.00    -0.002 A 
ATOM     12  C9  INB d   0      -5.491  -7.042  25.887  0.00  0.00     0.026 A 
BRANCH   8  13
ATOM     13  N1  INB d   0      -4.920 -10.402  27.599  0.00  0.00    -0.112 N 
ATOM     14  O2  INB d   0      -5.752 -11.304  27.578  0.00  0.00    -0.532 OA
ATOM     15  O1  INB d   0      -3.736 -10.577  27.870  0.00  0.00    -0.532 OA
ENDBRANCH   8  13
BRANCH  10  16
ATOM     16  C14 INB d   0      -7.572  -6.380  29.033  0.00  0.00     0.026 C 
ATOM     17  C15 INB d   0      -6.778  -5.846  30.231  0.00  0.00     0.005 C 
ENDBRANCH  10  16
ENDBRANCH   6   7
ENDBRANCH   5   6
ENDBRANCH   1   5
BRANCH   2  18
ATOM     18  N2  INB d   0      -2.116  -6.212  22.031  0.00  0.00    -0.169 NA
ATOM     19  C7  INB d   0      -2.178  -5.763  20.829  0.00  0.00     0.122 C 
BRANCH  19  20
ATOM     20  C5  INB d   0      -1.393  -4.597  20.373  0.00  0.00     0.043 A 
ATOM     21  C12 INB d   0      -1.500  -3.353  21.042  0.00  0.00     0.004 A 
ATOM     22  C16 INB d   0      -0.754  -2.239  20.612  0.00  0.00     0.000 A 
ATOM     23  C17 INB d   0       0.107  -2.353  19.506  0.00  0.00     0.002 A 
ATOM     24  C13 INB d   0       0.224  -3.582  18.833  0.00  0.00     0.024 A 
ATOM     25  C6  INB d   0      -0.520  -4.702  19.259  0.00  0.00     0.091 A 
BRANCH  25  26
ATOM     26  O5  INB d   0      -0.373  -5.875  18.571  0.00  0.00    -0.359 OA
ATOM     27  H8  INB d   0      -0.709  -6.626  19.036  0.00  0.00     0.217 HD
ENDBRANCH  25  26
ENDBRANCH  19  20
ENDBRANCH   2  18
TORSDOF 8
ENDMDL
MODEL 9
REMARK VINA RESULT:    -6.491      4.109      7.235
REMARK INTER + INTRA:         -10.648
REMARK INTER:                  -9.483
REMARK INTRA:                  -1.165
REMARK UNBOUND:                -1.312
REMARK  8 active torsions:
REMARK  status: ('A' for Active; 'I' for Inactive)
REMARK       I    between atoms: N3_2  and  C2_1 
REMARK    1  A    between atoms: C2_1  and  C8_5 
REMARK    2  A    between atoms: N2_18  and  N3_2 
REMARK    3  A    between atoms: C8_5  and  O3_6 
REMARK    4  A    between atoms: O3_6  and  C3_7 
REMARK    5  A    between atoms: N1_13  and  C1_8 
REMARK    6  A    between atoms: C10_10  and  C14_16 
REMARK    7  A    between atoms: C5_20  and  C7_19 
REMARK    8  A    between atoms: C6_21  and  O5_26 
ROOT
ATOM      1  C2  INB d   0      -6.887  -6.664  26.978  0.00  0.00     0.280 C 
ATOM      2  N3  INB d   0      -6.079  -7.067  25.982  0.00  0.00    -0.244 N 
ATOM      3  O4  INB d   0      -7.217  -5.492  27.154  0.00  0.00    -0.268 OA
ATOM      4  H2  INB d   0      -5.754  -8.024  25.946  0.00  0.00     0.192 HD
ENDROOT
BRANCH   1   5
ATOM      5  C8  INB d   0      -7.392  -7.746  27.934  0.00  0.00     0.237 C 
BRANCH   5   6
ATOM      6  O3  INB d   0      -6.338  -8.124  28.811  0.00  0.00    -0.319 OA
BRANCH   6   7
ATOM      7  C3  INB d   0      -5.537  -9.191  28.462  0.00  0.00     0.117 A 
ATOM      8  C1  INB d   0      -4.132  -8.987  28.401  0.00  0.00     0.148 A 
ATOM      9  C4  INB d   0      -3.292 -10.054  28.008  0.00  0.00     0.021 A 
ATOM     10  C10 INB d   0      -3.826 -11.316  27.685  0.00  0.00    -0.020 A 
ATOM     11  C11 INB d   0      -5.217 -11.517  27.748  0.00  0.00    -0.002 A 
ATOM     12  C9  INB d   0      -6.066 -10.462  28.131  0.00  0.00     0.026 A 
BRANCH   8  13
ATOM     13  N1  INB d   0      -3.525  -7.685  28.744  0.00  0.00    -0.112 N 
ATOM     14  O2  INB d   0      -3.349  -6.882  27.833  0.00  0.00    -0.532 OA
ATOM     15  O1  INB d   0      -3.204  -7.470  29.908  0.00  0.00    -0.532 OA
ENDBRANCH   8  13
BRANCH  10  16
ATOM     16  C14 INB d   0      -2.909 -12.448  27.264  0.00  0.00     0.026 C 
ATOM     17  C15 INB d   0      -1.465 -12.228  27.731  0.00  0.00     0.005 C 
ENDBRANCH  10  16
ENDBRANCH   6   7
ENDBRANCH   5   6
ENDBRANCH   1   5
BRANCH   2  18
ATOM     18  N2  INB d   0      -5.665  -6.274  24.972  0.00  0.00    -0.169 NA
ATOM     19  C7  INB d   0      -4.438  -5.896  25.016  0.00  0.00     0.122 C 
BRANCH  19  20
ATOM     20  C5  INB d   0      -3.744  -5.307  23.852  0.00  0.00     0.043 A 
ATOM     21  C12 INB d   0      -3.229  -3.989  23.914  0.00  0.00     0.004 A 
ATOM     22  C16 INB d   0      -2.567  -3.422  22.809  0.00  0.00     0.000 A 
ATOM     23  C17 INB d   0      -2.412  -4.165  21.624  0.00  0.00     0.002 A 
ATOM     24  C13 INB d   0      -2.917  -5.475  21.549  0.00  0.00     0.024 A 
ATOM     25  C6  INB d   0      -3.581  -6.049  22.653  0.00  0.00     0.091 A 
BRANCH  25  26
ATOM     26  O5  INB d   0      -4.056  -7.326  22.530  0.00  0.00    -0.359 OA
ATOM     27  H8  INB d   0      -3.662  -7.932  23.138  0.00  0.00     0.217 HD
ENDBRANCH  25  26
ENDBRANCH  19  20
ENDBRANCH   2  18
TORSDOF 8
ENDMDL
MODEL 10
REMARK VINA RESULT:    -6.453      2.094      2.770
REMARK INTER + INTRA:         -10.595
REMARK INTER:                 -10.019
REMARK INTRA:                  -0.575
REMARK UNBOUND:                -1.312
REMARK  8 active torsions:
REMARK  status: ('A' for Active; 'I' for Inactive)
REMARK       I    between atoms: N3_2  and  C2_1 
REMARK    1  A    between atoms: C2_1  and  C8_5 
REMARK    2  A    between atoms: N2_18  and  N3_2 
REMARK    3  A    between atoms: C8_5  and  O3_6 
REMARK    4  A    between atoms: O3_6  and  C3_7 
REMARK    5  A    between atoms: N1_13  and  C1_8 
REMARK    6  A    between atoms: C10_10  and  C14_16 
REMARK    7  A    between atoms: C5_20  and  C7_19 
REMARK    8  A    between atoms: C6_21  and  O5_26 
ROOT
ATOM      1  C2  INB d   0      -5.878  -7.080  28.724  0.00  0.00     0.280 C 
ATOM      2  N3  INB d   0      -6.601  -6.280  29.526  0.00  0.00    -0.244 N 
ATOM      3  O4  INB d   0      -4.711  -7.397  28.952  0.00  0.00    -0.268 OA
ATOM      4  H2  INB d   0      -7.518  -5.964  29.238  0.00  0.00     0.192 HD
ENDROOT
BRANCH   1   5
ATOM      5  C8  INB d   0      -6.570  -7.594  27.460  0.00  0.00     0.237 C 
BRANCH   5   6
ATOM      6  O3  INB d   0      -5.649  -8.376  26.708  0.00  0.00    -0.319 OA
BRANCH   6   7
ATOM      7  C3  INB d   0      -5.123  -7.847  25.549  0.00  0.00     0.117 A 
ATOM      8  C1  INB d   0      -3.959  -8.450  25.001  0.00  0.00     0.148 A 
ATOM      9  C4  INB d   0      -3.376  -7.903  23.835  0.00  0.00     0.021 A 
ATOM     10  C10 INB d   0      -3.938  -6.777  23.204  0.00  0.00    -0.020 A 
ATOM     11  C11 INB d   0      -5.093  -6.182  23.746  0.00  0.00    -0.002 A 
ATOM     12  C9  INB d   0      -5.679  -6.711  24.911  0.00  0.00     0.026 A 
BRANCH   8  13
ATOM     13  N1  INB d   0      -3.342  -9.641  25.620  0.00  0.00    -0.112 N 
ATOM     14  O2  INB d   0      -2.686  -9.475  26.644  0.00  0.00    -0.532 OA
ATOM     15  O1  INB d   0      -3.490 -10.733  25.079  0.00  0.00    -0.532 OA
ENDBRANCH   8  13
BRANCH  10  16
ATOM     16  C14 INB d   0      -3.299  -6.203  21.954  0.00  0.00     0.026 C 
ATOM     17  C15 INB d   0      -1.827  -5.834  22.174  0.00  0.00     0.005 C 
ENDBRANCH  10  16
ENDBRANCH   6   7
ENDBRANCH   5   6
ENDBRANCH   1   5
BRANCH   2  18
ATOM     18  N2  INB d   0      -6.198  -5.860  30.743  0.00  0.00    -0.169 NA
ATOM     19  C7  INB d   0      -7.035  -5.140  31.400  0.00  0.00     0.122 C 
BRANCH  19  20
ATOM     20  C5  INB d   0      -6.892  -4.872  32.846  0.00  0.00     0.043 A 
ATOM     21  C12 INB d   0      -5.638  -5.032  33.486  0.00  0.00     0.004 A 
ATOM     22  C16 INB d   0      -5.496  -4.778  34.863  0.00  0.00     0.000 A 
ATOM     23  C17 INB d   0      -6.606  -4.361  35.620  0.00  0.00     0.002 A 
ATOM     24  C13 INB d   0      -7.856  -4.197  34.998  0.00  0.00     0.024 A 
ATOM     25  C6  INB d   0      -8.005  -4.450  33.618  0.00  0.00     0.091 A 
BRANCH  25  26
ATOM     26  O5  INB d   0      -9.242  -4.277  33.059  0.00  0.00    -0.359 OA
ATOM     27  H8  INB d   0      -9.809  -5.025  33.169  0.00  0.00     0.217 HD
ENDBRANCH  25  26
ENDBRANCH  19  20
ENDBRANCH   2  18
TORSDOF 8
ENDMDL
