@<TRIPOS>MOLECULE
./may13.pdb
 28 30 0 0 0
SMALL
GASTEIGER

@<TRIPOS>ATOM
      1  C1       -52.0300  -15.1890   14.9400 C.ar    0  INB0        0.1224
      2  C2       -51.0580  -14.8590   13.9140 C.ar    0  INB0        0.2935
      3  N1       -53.0070  -15.4490   12.9760 N.ar    0  INB0       -0.2646
      4  N2       -51.6970  -15.0270   12.7350 N.ar    0  INB0       -0.2134
      5  C3       -53.1800  -15.5340   14.3370 C.ar    0  INB0        0.0727
      6  O1       -49.8910  -14.5010   14.0770 O.2     0  INB0       -0.2638
      7  C12      -53.4760  -16.4770   12.0490 C.3     0  INB0        0.1518
      8  C13      -54.4810  -16.0630   14.9210 C.3     0  INB0        0.0531
      9  N4       -51.6780  -15.1710   16.2950 N.am    0  INB0       -0.2757
     10  C5       -50.6700  -15.8290   16.8960 C.2     0  INB0        0.2497
     11  O4       -49.8070  -16.4820   16.3110 O.2     0  INB0       -0.2698
     12  H1       -52.3130  -14.6660   16.8950 H       0  INB0        0.1553
     13  C7       -50.6340  -15.7020   18.3930 C.ar    0  INB0        0.0554
     14  C6       -49.3940  -15.5870   19.0570 C.ar    0  INB0        0.0291
     15  C4       -49.3260  -15.4910   20.4660 C.ar    0  INB0        0.1492
     16  C8       -50.5260  -15.5040   21.2190 C.ar    0  INB0        0.0570
     17  C11      -51.7630  -15.6320   20.5600 C.ar    0  INB0        0.0085
     18 Br        -50.5320  -15.3150   23.1180 Br      0  INB0       -0.0473
     19  C10      -51.8220  -15.7380   19.1580 C.ar    0  INB0        0.0051
     20  N3       -48.0070  -15.3760   21.1080 N.pl3   0  INB0        0.0582
     21  O2       -47.6310  -14.2550   21.4300 O.2     0  INB0       -0.1261
     22  O3       -47.3400  -16.3940   21.2540 O.2     0  INB0       -0.1261
     23  C9       -51.2560  -14.5500   11.4650 C.ar    0  INB0        0.0841
     24  C14      -51.1420  -15.4410   10.3730 C.ar    0  INB0        0.0192
     25  C16      -50.6940  -14.9790    9.1200 C.ar    0  INB0        0.0015
     26  C18      -50.3520  -13.6240    8.9510 C.ar    0  INB0        0.0001
     27  C17      -50.4560  -12.7310   10.0340 C.ar    0  INB0        0.0015
     28  C15      -50.9050  -13.1920   11.2880 C.ar    0  INB0        0.0192
@<TRIPOS>BOND
     1    26    25   ar
     2    26    27   ar
     3    25    24   ar
     4    27    28   ar
     5    24    23   ar
     6    28    23   ar
     7    23     4    1
     8     7     3    1
     9     4     3   ar
    10     4     2   ar
    11     3     5   ar
    12     2     6    2
    13     2     1   ar
    14     5     8    1
    15     5     1   ar
    16     1     9    1
    17     9    12    1
    18     9    10   am
    19    11    10    2
    20    10    13    1
    21    13    14   ar
    22    13    19   ar
    23    14    15   ar
    24    19    17   ar
    25    15    20    1
    26    15    16   ar
    27    17    16   ar
    28    20    22    2
    29    20    21    2
    30    16    18    1
