REMARK  4 active torsions:
REMARK  status: ('A' for Active; 'I' for Inactive)
REMARK    1  A    between atoms: C1_1  and  N3_9 
REMARK    2  A    between atoms: C8_22  and  N2_4 
REMARK       I    between atoms: N3_9  and  C4_10 
REMARK    3  A    between atoms: C4_10  and  C5_13 
REMARK    4  A    between atoms: C7_19  and  C6_14 
ROOT
ATOM      1  C1  INB d   0     -52.177 -15.584  15.302  0.00  0.00     0.125 A 
ATOM      2  C2  INB d   0     -51.429 -14.985  14.213  0.00  0.00     0.291 A 
ATOM      3  N1  INB d   0     -53.220 -16.075  13.418  0.00  0.00    -0.171 NA
ATOM      4  N2  INB d   0     -52.108 -15.299  13.088  0.00  0.00    -0.231 N 
ATOM      5  C3  INB d   0     -53.229 -16.237  14.781  0.00  0.00     0.054 A 
ATOM      6  O1  INB d   0     -50.388 -14.331  14.286  0.00  0.00    -0.264 OA
ATOM      7  C9  INB d   0     -54.414 -15.737  12.650  0.00  0.00     0.119 C 
ATOM      8  C10 INB d   0     -54.273 -17.120  15.442  0.00  0.00     0.047 C 
ENDROOT
BRANCH   1   9
ATOM      9  N3  INB d   0     -51.733 -15.490  16.626  0.00  0.00    -0.317 N 
ATOM     10  H1  INB d   0     -51.918 -14.610  17.085  0.00  0.00     0.169 HD
ATOM     11  C4  INB d   0     -51.173 -16.459  17.370  0.00  0.00     0.258 C 
ATOM     12  O2  INB d   0     -51.064 -17.638  17.034  0.00  0.00    -0.267 OA
BRANCH  11  13
ATOM     13  C5  INB d   0     -50.709 -16.004  18.728  0.00  0.00     0.062 A 
ATOM     14  C6  INB d   0     -49.346 -15.684  19.025  0.00  0.00     0.069 A 
ATOM     15  C12 INB d   0     -49.000 -15.368  20.360  0.00  0.00     0.006 A 
ATOM     16  C16 INB d   0     -49.968 -15.335  21.380  0.00  0.00     0.000 A 
ATOM     17  C15 INB d   0     -51.308 -15.624  21.080  0.00  0.00     0.000 A 
ATOM     18  C11 INB d   0     -51.672 -15.959  19.764  0.00  0.00     0.005 A 
BRANCH  14  19
ATOM     19  C7  INB d   0     -48.248 -15.630  17.986  0.00  0.00     0.211 C 
ATOM     20  O4  INB d   0     -48.168 -14.614  17.260  0.00  0.00    -0.644 OA
ATOM     21  O3  INB d   0     -47.479 -16.608  17.841  0.00  0.00    -0.644 OA
ENDBRANCH  14  19
ENDBRANCH  11  13
ENDBRANCH   1   9
BRANCH   4  22
ATOM     22  C8  INB d   0     -51.661 -15.117  11.746  0.00  0.00     0.079 A 
ATOM     23  C14 INB d   0     -51.841 -16.137  10.784  0.00  0.00     0.019 A 
ATOM     24  C18 INB d   0     -51.387 -15.957   9.463  0.00  0.00     0.002 A 
ATOM     25  C19 INB d   0     -50.748 -14.758   9.095  0.00  0.00     0.000 A 
ATOM     26  C17 INB d   0     -50.561 -13.739  10.048  0.00  0.00     0.002 A 
ATOM     27  C13 INB d   0     -51.015 -13.917  11.368  0.00  0.00     0.019 A 
ENDBRANCH   4  22
TORSDOF 4
