REMARK  3 active torsions:
REMARK  status: ('A' for Active; 'I' for Inactive)
REMARK    1  A    between atoms: C8_8  and  C11_11 
REMARK    2  A    between atoms: C11_11  and  N1_12 
REMARK    3  A    between atoms: C17_20  and  C20_23 
REMARK       I    between atoms: C20_23  and  N2_25 
ROOT
ATOM      1  N1  UNK d 900       1.443   1.461  -0.074  0.00  0.00    -0.306 N 
ATOM      2  C12 UNK d 900       1.491   2.166  -1.225  0.00  0.00     0.299 A 
ATOM      3  C13 UNK d 900       0.100   2.797  -1.406  0.00  0.00     0.252 A 
ATOM      4  C14 UNK d 900      -0.670   2.349  -0.250  0.00  0.00     0.048 A 
ATOM      5  C15 UNK d 900       0.166   1.553   0.522  0.00  0.00     0.052 A 
ATOM      6  O1  UNK d 900       2.438   2.289  -2.002  0.00  0.00    -0.263 OA
ATOM      7  O2  UNK d 900      -0.254   3.518  -2.338  0.00  0.00    -0.281 OA
ATOM      8  C16 UNK d 900      -2.001   2.607   0.116  0.00  0.00     0.035 A 
ATOM      9  C17 UNK d 900      -2.492   2.019   1.311  0.00  0.00     0.032 A 
ATOM     10  C18 UNK d 900      -1.630   1.213   2.103  0.00  0.00     0.019 A 
ATOM     11  C19 UNK d 900      -0.293   0.967   1.716  0.00  0.00     0.032 A 
ENDROOT
BRANCH   1  12
ATOM     12  C11 UNK d 900       2.544   0.681   0.494  0.00  0.00     0.171 C 
BRANCH  12  13
ATOM     13  C8  UNK d 900       2.393  -0.827   0.340  0.00  0.00    -0.039 A 
ATOM     14  C7  UNK d 900       1.759  -1.395  -0.788  0.00  0.00     0.021 A 
ATOM     15  C1  UNK d 900       1.634  -2.794  -0.909  0.00  0.00    -0.025 A 
ATOM     16  C2  UNK d 900       2.152  -3.639   0.104  0.00  0.00    -0.026 A 
ATOM     17  C6  UNK d 900       0.996  -3.357  -2.033  0.00  0.00     0.012 A 
ATOM     18  C3  UNK d 900       2.027  -5.038  -0.016  0.00  0.00     0.012 A 
ATOM     19  C10 UNK d 900       2.792  -3.074   1.226  0.00  0.00     0.013 A 
ATOM     20  C4  UNK d 900       1.388  -5.595  -1.142  0.00  0.00     0.001 A 
ATOM     21  C5  UNK d 900       0.874  -4.755  -2.149  0.00  0.00     0.001 A 
ATOM     22  C9  UNK d 900       2.914  -1.676   1.340  0.00  0.00     0.010 A 
ENDBRANCH  12  13
ENDBRANCH   1  12
BRANCH   9  23
ATOM     23  C20 UNK d 900      -3.900   2.273   1.770  0.00  0.00     0.249 C 
ATOM     24  O3  UNK d 900      -4.194   2.280   2.963  0.00  0.00    -0.268 OA
ATOM     25  N2  UNK d 900      -4.814   2.429   0.809  0.00  0.00    -0.366 N 
ATOM     26  H13 UNK d 900      -5.779   2.581   1.061  0.00  0.00     0.159 HD
ATOM     27  H14 UNK d 900      -4.539   2.386  -0.161  0.00  0.00     0.159 HD
ENDBRANCH   9  23
TORSDOF 3
