@<TRIPOS>MOLECULE
./may2.pdb
 32 34 0 0 0
SMALL
GASTEIGER

@<TRIPOS>ATOM
      1  C1        -2.4860    0.3920    0.2330 C.ar    1  UNK1        0.0399
      2  C2        -3.6400   -0.0860   -0.5200 C.ar    1  UNK1        0.0850
      3  S3        -0.9250   -0.3550   -0.0090 S.2     1  UNK1       -0.0667
      4  C4        -2.4180    1.4010    1.1620 C.ar    1  UNK1       -0.0435
      5  C5        -3.6960   -1.0970   -1.4510 C.ar    1  UNK1        0.0038
      6  N6        -4.8900    0.5150   -0.3220 N.ar    1  UNK1       -0.2438
      7  C7        -0.1960    0.7080    1.1650 C.ar    1  UNK1        0.1482
      8  C8        -1.1070    1.5850    1.6920 C.ar    1  UNK1       -0.0271
      9  S9        -5.2960   -1.3230   -2.1000 S.2     1  UNK1       -0.0802
     10  C10       -5.8580   -0.0150   -1.0710 C.ar    1  UNK1        0.0759
     11  S11        1.5400    0.6160    1.5380 S.O2    1  UNK1        0.0979
     12  C12       -7.2710    0.4550   -1.0370 C.3     1  UNK1       -0.0159
     13  N13        2.3260    0.4500    0.1290 N.pl3   1  UNK1       -0.0959
     14  O14        1.8340    1.9050    2.1840 O.2     1  UNK1       -0.1478
     15  O15        1.6460   -0.5920    2.3720 O.2     1  UNK1       -0.1478
     16  C16        3.6510    0.2970   -0.0530 C.ar    1  UNK1        0.0940
     17  C17        4.1730    0.1270   -1.3600 C.ar    1  UNK1        0.0669
     18  C18        4.5700    0.2990    1.0260 C.ar    1  UNK1       -0.0160
     19  C19        5.5560   -0.0350   -1.5720 C.ar    1  UNK1       -0.0217
     20 Cl20        3.1290    0.1090   -2.7410 Cl      1  UNK1       -0.0815
     21  C21        5.9540    0.1390    0.8190 C.ar    1  UNK1        0.0612
     22  C22        6.4510   -0.0300   -0.4880 C.ar    1  UNK1        0.0607
     23 Cl23        7.0190    0.1510    2.1800 Cl      1  UNK1       -0.0820
     24 Cl24        8.1420   -0.2300   -0.7820 Cl      1  UNK1       -0.0820
     25  H25       -3.2540    2.0090    1.4740 H       1  UNK1        0.0630
     26  H26       -2.8880   -1.7260   -1.7970 H       1  UNK1        0.0715
     27  H27       -0.8790    2.3400    2.4290 H       1  UNK1        0.0643
     28  H28       -7.3210    1.5100   -1.3080 H       1  UNK1        0.0298
     29  H29       -7.8790   -0.1150   -1.7400 H       1  UNK1        0.0298
     30  H30       -7.6830    0.3290   -0.0350 H       1  UNK1        0.0298
     31  H31        4.2240    0.4270    2.0420 H       1  UNK1        0.0653
     32  H32        5.9330   -0.1630   -2.5760 H       1  UNK1        0.0648
@<TRIPOS>BOND
     1     1     2    1
     2     1     3   ar
     3     1     4   ar
     4     2     5   ar
     5     2     6   ar
     6     3     7   ar
     7     4     8   ar
     8     4    25    1
     9     5     9   ar
    10     5    26    1
    11     6    10   ar
    12     7    11    1
    13     7     8   ar
    14     8    27    1
    15     9    10   ar
    16    10    12    1
    17    11    13    1
    18    11    14    2
    19    11    15    2
    20    12    28    1
    21    12    29    1
    22    12    30    1
    23    13    16    1
    24    16    17   ar
    25    16    18   ar
    26    17    19   ar
    27    17    20    1
    28    18    21   ar
    29    18    31    1
    30    19    22   ar
    31    19    32    1
    32    21    23    1
    33    21    22   ar
    34    22    24    1
