REMARK  5 active torsions:
REMARK  status: ('A' for Active; 'I' for Inactive)
REMARK    1  A    between atoms: C1_1  and  C4_16 
REMARK    2  A    between atoms: S1_7  and  C2_2 
REMARK    3  A    between atoms: C3_8  and  S1_7 
REMARK    4  A    between atoms: C5_9  and  O1_14 
REMARK    5  A    between atoms: C4_16  and  N1_17 
ROOT
ATOM      1  C1  INB d   0     -53.185 -14.973  14.666  0.00  0.00     0.014 A 
ATOM      2  C2  INB d   0     -52.694 -15.737  13.575  0.00  0.00     0.027 A 
ATOM      3  C6  INB d   0     -54.569 -14.989  14.950  0.00  0.00    -0.002 A 
ATOM      4  C7  INB d   0     -53.590 -16.478  12.777  0.00  0.00     0.006 A 
ATOM      5  C12 INB d   0     -55.456 -15.741  14.157  0.00  0.00    -0.000 A 
ATOM      6  C13 INB d   0     -54.967 -16.483  13.067  0.00  0.00     0.001 A 
ENDROOT
BRANCH   2   7
ATOM      7  S1  INB d   0     -50.973 -15.780  13.168  0.00  0.00    -0.085 SA
BRANCH   7   8
ATOM      8  C3  INB d   0     -50.980 -14.910  11.628  0.00  0.00     0.051 A 
ATOM      9  C8  INB d   0     -51.438 -15.575  10.472  0.00  0.00     0.008 A 
ATOM     10  C14 INB d   0     -51.454 -14.908   9.231  0.00  0.00     0.001 A 
ATOM     11  C15 INB d   0     -51.013 -13.574   9.144  0.00  0.00     0.002 A 
ATOM     12  C9  INB d   0     -50.558 -12.906  10.298  0.00  0.00     0.024 A 
ATOM     13  C5  INB d   0     -50.540 -13.569  11.543  0.00  0.00     0.095 A 
BRANCH  13  14
ATOM     14  O1  INB d   0     -50.096 -12.898  12.646  0.00  0.00    -0.358 OA
ATOM     15  H3  INB d   0     -50.379 -11.997  12.668  0.00  0.00     0.217 HD
ENDBRANCH  13  14
ENDBRANCH   7   8
ENDBRANCH   2   7
BRANCH   1  16
ATOM     16  C4  INB d   0     -52.281 -14.117  15.547  0.00  0.00     0.240 C 
BRANCH  16  17
ATOM     17  N1  INB d   0     -51.755 -14.870  16.713  0.00  0.00    -0.018 N 
ATOM     18  C10 INB d   0     -52.258 -16.262  16.748  0.00  0.00     0.246 C 
ATOM     19  C11 INB d   0     -50.279 -14.819  16.831  0.00  0.00     0.246 C 
ATOM     20  H18 INB d   0     -52.125 -14.415  17.534  0.00  0.00     0.284 HD
ENDBRANCH  16  17
ENDBRANCH   1  16
TORSDOF 5
