@<TRIPOS>MOLECULE
./may20.pdb
 20 21 0 0 0
SMALL
GASTEIGER

@<TRIPOS>ATOM
      1  C1       -53.1850  -14.9730   14.6660 C.ar    0  INB0       -0.0372
      2  C2       -52.6940  -15.7370   13.5750 C.ar    0  INB0        0.0236
      3  C6       -54.5690  -14.9890   14.9500 C.ar    0  INB0       -0.0058
      4  C7       -53.5900  -16.4780   12.7770 C.ar    0  INB0        0.0061
      5  C12      -55.4560  -15.7410   14.1570 C.ar    0  INB0       -0.0004
      6  C13      -54.9670  -16.4830   13.0670 C.ar    0  INB0        0.0005
      7  S1       -50.9730  -15.7800   13.1680 S.3     0  INB0       -0.0843
      8  C3       -50.9800  -14.9100   11.6280 C.ar    0  INB0        0.0631
      9  C5       -50.5400  -13.5690   11.5430 C.ar    0  INB0        0.1395
     10  C9       -50.5580  -12.9060   10.2980 C.ar    0  INB0        0.0371
     11  C15      -51.0130  -13.5740    9.1440 C.ar    0  INB0        0.0031
     12  C14      -51.4540  -14.9080    9.2310 C.ar    0  INB0        0.0007
     13  C8       -51.4380  -15.5750   10.4720 C.ar    0  INB0        0.0095
     14  O1       -50.0960  -12.8980   12.6460 O.3     0  INB0       -0.5050
     15  H3       -50.3790  -11.9970   12.6680 H       0  INB0        0.2922
     16  C4       -52.2810  -14.1170   15.5470 C.3     0  INB0       -0.0496
     17  N1       -51.7550  -14.8700   16.7130 N.4     0  INB0        0.3868
     18  C10      -52.2580  -16.2620   16.7480 C.3     0  INB0       -0.1003
     19  C11      -50.2790  -14.8190   16.8310 C.3     0  INB0       -0.1003
     20  H18      -52.1250  -14.4150   17.5340 H       0  INB0       -0.0794
@<TRIPOS>BOND
     1    11    12   ar
     2    11    10   ar
     3    12    13   ar
     4    10     9   ar
     5    13     8   ar
     6     9     8   ar
     7     9    14    1
     8     8     7    1
     9    14    15    1
    10     4     6   ar
    11     4     2   ar
    12     6     5   ar
    13     7     2    1
    14     2     1   ar
    15     5     3   ar
    16     1     3   ar
    17     1    16    1
    18    16    17    1
    19    17    18    1
    20    17    19    1
    21    17    20    1
