REMARK  4 active torsions:
REMARK  status: ('A' for Active; 'I' for Inactive)
REMARK    1  A    between atoms: C1_1  and  C2_2 
REMARK    2  A    between atoms: C7_7  and  S11_11 
REMARK    3  A    between atoms: S11_11  and  N13_13 
REMARK    4  A    between atoms: N13_13  and  C16_16 
ROOT
ATOM      1  S11 UNK d   1       1.540   0.616   1.538  0.00  0.00     0.290 S 
ATOM      2  O14 UNK d   1       1.834   1.905   2.184  0.00  0.00    -0.198 OA
ATOM      3  O15 UNK d   1       1.646  -0.592   2.372  0.00  0.00    -0.198 OA
ENDROOT
BRANCH   1   4
ATOM      4  C7  UNK d   1      -0.196   0.708   1.165  0.00  0.00     0.123 A 
ATOM      5  S3  UNK d   1      -0.925  -0.355  -0.009  0.00  0.00    -0.074 SA
ATOM      6  C1  UNK d   1      -2.486   0.392   0.233  0.00  0.00     0.035 A 
ATOM      7  C4  UNK d   1      -2.418   1.401   1.162  0.00  0.00     0.023 A 
ATOM      8  C8  UNK d   1      -1.107   1.585   1.692  0.00  0.00     0.034 A 
BRANCH   6   9
ATOM      9  C2  UNK d   1      -3.640  -0.086  -0.520  0.00  0.00     0.081 A 
ATOM     10  C5  UNK d   1      -3.696  -1.097  -1.451  0.00  0.00     0.084 A 
ATOM     11  S9  UNK d   1      -5.296  -1.323  -2.100  0.00  0.00    -0.085 SA
ATOM     12  C10 UNK d   1      -5.858  -0.015  -1.071  0.00  0.00     0.071 A 
ATOM     13  N6  UNK d   1      -4.890   0.515  -0.322  0.00  0.00    -0.245 NA
ATOM     14  C12 UNK d   1      -7.271   0.455  -1.037  0.00  0.00     0.078 C 
ENDBRANCH   6   9
ENDBRANCH   1   4
BRANCH   1  15
ATOM     15  N13 UNK d   1       2.326   0.450   0.129  0.00  0.00    -0.158 NA
BRANCH  15  16
ATOM     16  C16 UNK d   1       3.651   0.297  -0.053  0.00  0.00     0.093 A 
ATOM     17  C17 UNK d   1       4.173   0.127  -1.360  0.00  0.00     0.065 A 
ATOM     18  C19 UNK d   1       5.556  -0.035  -1.572  0.00  0.00     0.051 A 
ATOM     19 Cl20 UNK d   1       3.129   0.109  -2.741  0.00  0.00    -0.082 Cl
ATOM     20  C22 UNK d   1       6.451  -0.030  -0.488  0.00  0.00     0.057 A 
ATOM     21  C21 UNK d   1       5.954   0.139   0.819  0.00  0.00     0.058 A 
ATOM     22 Cl24 UNK d   1       8.142  -0.230  -0.782  0.00  0.00    -0.082 Cl
ATOM     23  C18 UNK d   1       4.570   0.299   1.026  0.00  0.00     0.059 A 
ATOM     24 Cl23 UNK d   1       7.019   0.151   2.180  0.00  0.00    -0.082 Cl
ENDBRANCH  15  16
ENDBRANCH   1  15
TORSDOF 4
