MODEL 1
REMARK VINA RESULT:    -7.170      0.000      0.000
REMARK INTER + INTRA:          -9.325
REMARK INTER:                  -8.847
REMARK INTRA:                  -0.478
REMARK UNBOUND:                -0.478
REMARK  4 active torsions:
REMARK  status: ('A' for Active; 'I' for Inactive)
REMARK    1  A    between atoms: C1_1  and  C2_2 
REMARK    2  A    between atoms: C7_7  and  S11_11 
REMARK    3  A    between atoms: S11_11  and  N13_13 
REMARK    4  A    between atoms: N13_13  and  C16_16 
ROOT
ATOM      1  S11 UNK d   1      -4.811  -6.155  24.099  0.00  0.00     0.290 S 
ATOM      2  O14 UNK d   1      -5.128  -6.994  22.933  0.00  0.00    -0.198 OA
ATOM      3  O15 UNK d   1      -5.799  -5.132  24.478  0.00  0.00    -0.198 OA
ENDROOT
BRANCH   1   4
ATOM      4  C7  UNK d   1      -4.846  -7.289  25.468  0.00  0.00     0.123 A 
ATOM      5  S3  UNK d   1      -3.663  -8.561  25.617  0.00  0.00    -0.074 SA
ATOM      6  C1  UNK d   1      -4.412  -9.133  27.088  0.00  0.00     0.035 A 
ATOM      7  C4  UNK d   1      -5.509  -8.375  27.417  0.00  0.00     0.023 A 
ATOM      8  C8  UNK d   1      -5.760  -7.323  26.487  0.00  0.00     0.034 A 
BRANCH   6   9
ATOM      9  C2  UNK d   1      -3.848 -10.282  27.786  0.00  0.00     0.081 A 
ATOM     10  C5  UNK d   1      -2.820 -11.105  27.390  0.00  0.00     0.084 A 
ATOM     11  S9  UNK d   1      -2.481 -12.361  28.548  0.00  0.00    -0.085 SA
ATOM     12  C10 UNK d   1      -3.768 -11.724  29.560  0.00  0.00     0.071 A 
ATOM     13  N6  UNK d   1      -4.372 -10.659  29.030  0.00  0.00    -0.245 NA
ATOM     14  C12 UNK d   1      -4.148 -12.312  30.874  0.00  0.00     0.078 C 
ENDBRANCH   6   9
ENDBRANCH   1   4
BRANCH   1  15
ATOM     15  N13 UNK d   1      -3.310  -5.545  24.018  0.00  0.00    -0.158 NA
BRANCH  15  16
ATOM     16  C16 UNK d   1      -2.939  -4.354  23.512  0.00  0.00     0.093 A 
ATOM     17  C17 UNK d   1      -2.483  -4.262  22.173  0.00  0.00     0.065 A 
ATOM     18  C19 UNK d   1      -2.090  -3.025  21.626  0.00  0.00     0.051 A 
ATOM     19 Cl20 UNK d   1      -2.389  -5.667  21.166  0.00  0.00    -0.082 Cl
ATOM     20  C22 UNK d   1      -2.144  -1.852  22.398  0.00  0.00     0.057 A 
ATOM     21  C21 UNK d   1      -2.596  -1.920  23.730  0.00  0.00     0.058 A 
ATOM     22 Cl24 UNK d   1      -1.657  -0.350  21.695  0.00  0.00    -0.082 Cl
ATOM     23  C18 UNK d   1      -2.986  -3.159  24.274  0.00  0.00     0.059 A 
ATOM     24 Cl23 UNK d   1      -2.678  -0.502  24.714  0.00  0.00    -0.082 Cl
ENDBRANCH  15  16
ENDBRANCH   1  15
TORSDOF 4
ENDMDL
MODEL 2
REMARK VINA RESULT:    -7.056      4.085      8.444
REMARK INTER + INTRA:          -9.185
REMARK INTER:                  -8.567
REMARK INTRA:                  -0.618
REMARK UNBOUND:                -0.478
REMARK  4 active torsions:
REMARK  status: ('A' for Active; 'I' for Inactive)
REMARK    1  A    between atoms: C1_1  and  C2_2 
REMARK    2  A    between atoms: C7_7  and  S11_11 
REMARK    3  A    between atoms: S11_11  and  N13_13 
REMARK    4  A    between atoms: N13_13  and  C16_16 
ROOT
ATOM      1  S11 UNK d   1      -6.126  -7.655  27.558  0.00  0.00     0.290 S 
ATOM      2  O14 UNK d   1      -5.807  -7.431  28.977  0.00  0.00    -0.198 OA
ATOM      3  O15 UNK d   1      -7.404  -7.119  27.065  0.00  0.00    -0.198 OA
ENDROOT
BRANCH   1   4
ATOM      4  C7  UNK d   1      -4.911  -6.692  26.687  0.00  0.00     0.123 A 
ATOM      5  S3  UNK d   1      -5.074  -6.361  24.983  0.00  0.00    -0.074 SA
ATOM      6  C1  UNK d   1      -3.571  -5.470  24.977  0.00  0.00     0.035 A 
ATOM      7  C4  UNK d   1      -2.997  -5.452  26.224  0.00  0.00     0.023 A 
ATOM      8  C8  UNK d   1      -3.761  -6.155  27.202  0.00  0.00     0.034 A 
BRANCH   6   9
ATOM      9  C2  UNK d   1      -3.091  -4.870  23.737  0.00  0.00     0.081 A 
ATOM     10  C5  UNK d   1      -2.780  -3.554  23.488  0.00  0.00     0.084 A 
ATOM     11  S9  UNK d   1      -2.243  -3.290  21.852  0.00  0.00    -0.085 SA
ATOM     12  C10 UNK d   1      -2.459  -5.006  21.544  0.00  0.00     0.071 A 
ATOM     13  N6  UNK d   1      -2.899  -5.678  22.609  0.00  0.00    -0.245 NA
ATOM     14  C12 UNK d   1      -2.180  -5.646  20.228  0.00  0.00     0.078 C 
ENDBRANCH   6   9
ENDBRANCH   1   4
BRANCH   1  15
ATOM     15  N13 UNK d   1      -5.911  -9.203  27.125  0.00  0.00    -0.158 NA
BRANCH  15  16
ATOM     16  C16 UNK d   1      -4.960 -10.049  27.563  0.00  0.00     0.093 A 
ATOM     17  C17 UNK d   1      -3.822 -10.314  26.760  0.00  0.00     0.065 A 
ATOM     18  C19 UNK d   1      -2.815 -11.196  27.199  0.00  0.00     0.051 A 
ATOM     19 Cl20 UNK d   1      -3.632  -9.568  25.210  0.00  0.00    -0.082 Cl
ATOM     20  C22 UNK d   1      -2.917 -11.832  28.449  0.00  0.00     0.057 A 
ATOM     21  C21 UNK d   1      -4.039 -11.581  29.263  0.00  0.00     0.058 A 
ATOM     22 Cl24 UNK d   1      -1.665 -12.907  28.959  0.00  0.00    -0.082 Cl
ATOM     23  C18 UNK d   1      -5.044 -10.700  28.819  0.00  0.00     0.059 A 
ATOM     24 Cl23 UNK d   1      -4.204 -12.342  30.806  0.00  0.00    -0.082 Cl
ENDBRANCH  15  16
ENDBRANCH   1  15
TORSDOF 4
ENDMDL
MODEL 3
REMARK VINA RESULT:    -6.972      4.162      8.217
REMARK INTER + INTRA:          -9.081
REMARK INTER:                  -8.595
REMARK INTRA:                  -0.486
REMARK UNBOUND:                -0.478
REMARK  4 active torsions:
REMARK  status: ('A' for Active; 'I' for Inactive)
REMARK    1  A    between atoms: C1_1  and  C2_2 
REMARK    2  A    between atoms: C7_7  and  S11_11 
REMARK    3  A    between atoms: S11_11  and  N13_13 
REMARK    4  A    between atoms: N13_13  and  C16_16 
ROOT
ATOM      1  S11 UNK d   1      -6.066  -8.397  28.115  0.00  0.00     0.290 S 
ATOM      2  O14 UNK d   1      -5.014  -7.966  29.050  0.00  0.00    -0.198 OA
ATOM      3  O15 UNK d   1      -7.459  -8.119  28.499  0.00  0.00    -0.198 OA
ENDROOT
BRANCH   1   4
ATOM      4  C7  UNK d   1      -5.819  -7.367  26.687  0.00  0.00     0.123 A 
ATOM      5  S3  UNK d   1      -4.220  -7.042  26.073  0.00  0.00    -0.074 SA
ATOM      6  C1  UNK d   1      -4.873  -6.028  24.809  0.00  0.00     0.035 A 
ATOM      7  C4  UNK d   1      -6.243  -5.957  24.884  0.00  0.00     0.023 A 
ATOM      8  C8  UNK d   1      -6.783  -6.719  25.961  0.00  0.00     0.034 A 
BRANCH   6   9
ATOM      9  C2  UNK d   1      -3.972  -5.392  23.855  0.00  0.00     0.081 A 
ATOM     10  C5  UNK d   1      -3.343  -4.173  23.953  0.00  0.00     0.084 A 
ATOM     11  S9  UNK d   1      -2.352  -3.815  22.567  0.00  0.00    -0.085 SA
ATOM     12  C10 UNK d   1      -2.826  -5.360  21.877  0.00  0.00     0.071 A 
ATOM     13  N6  UNK d   1      -3.658  -6.049  22.658  0.00  0.00    -0.245 NA
ATOM     14  C12 UNK d   1      -2.347  -5.850  20.554  0.00  0.00     0.078 C 
ENDBRANCH   6   9
ENDBRANCH   1   4
BRANCH   1  15
ATOM     15  N13 UNK d   1      -5.863  -9.934  27.639  0.00  0.00    -0.158 NA
BRANCH  15  16
ATOM     16  C16 UNK d   1      -4.704 -10.550  27.342  0.00  0.00     0.093 A 
ATOM     17  C17 UNK d   1      -4.042 -11.329  28.324  0.00  0.00     0.065 A 
ATOM     18  C19 UNK d   1      -2.828 -11.982  28.034  0.00  0.00     0.051 A 
ATOM     19 Cl20 UNK d   1      -4.701 -11.504  29.916  0.00  0.00    -0.082 Cl
ATOM     20  C22 UNK d   1      -2.245 -11.874  26.759  0.00  0.00     0.057 A 
ATOM     21  C21 UNK d   1      -2.887 -11.106  25.768  0.00  0.00     0.058 A 
ATOM     22 Cl24 UNK d   1      -0.756 -12.688  26.435  0.00  0.00    -0.082 Cl
ATOM     23  C18 UNK d   1      -4.100 -10.454  26.064  0.00  0.00     0.059 A 
ATOM     24 Cl23 UNK d   1      -2.205 -10.947  24.188  0.00  0.00    -0.082 Cl
ENDBRANCH  15  16
ENDBRANCH   1  15
TORSDOF 4
ENDMDL
MODEL 4
REMARK VINA RESULT:    -6.907      4.017      8.252
REMARK INTER + INTRA:          -9.000
REMARK INTER:                  -8.468
REMARK INTRA:                  -0.532
REMARK UNBOUND:                -0.478
REMARK  4 active torsions:
REMARK  status: ('A' for Active; 'I' for Inactive)
REMARK    1  A    between atoms: C1_1  and  C2_2 
REMARK    2  A    between atoms: C7_7  and  S11_11 
REMARK    3  A    between atoms: S11_11  and  N13_13 
REMARK    4  A    between atoms: N13_13  and  C16_16 
ROOT
ATOM      1  S11 UNK d   1      -5.938  -6.572  27.563  0.00  0.00     0.290 S 
ATOM      2  O14 UNK d   1      -5.366  -6.552  28.918  0.00  0.00    -0.198 OA
ATOM      3  O15 UNK d   1      -7.072  -5.671  27.300  0.00  0.00    -0.198 OA
ENDROOT
BRANCH   1   4
ATOM      4  C7  UNK d   1      -4.642  -5.912  26.540  0.00  0.00     0.123 A 
ATOM      5  S3  UNK d   1      -4.917  -5.547  24.857  0.00  0.00    -0.074 SA
ATOM      6  C1  UNK d   1      -3.260  -5.027  24.664  0.00  0.00     0.035 A 
ATOM      7  C4  UNK d   1      -2.559  -5.146  25.839  0.00  0.00     0.023 A 
ATOM      8  C8  UNK d   1      -3.348  -5.656  26.911  0.00  0.00     0.034 A 
BRANCH   6   9
ATOM      9  C2  UNK d   1      -2.800  -4.550  23.365  0.00  0.00     0.081 A 
ATOM     10  C5  UNK d   1      -2.431  -3.275  23.003  0.00  0.00     0.084 A 
ATOM     11  S9  UNK d   1      -1.946  -3.166  21.334  0.00  0.00    -0.085 SA
ATOM     12  C10 UNK d   1      -2.262  -4.886  21.168  0.00  0.00     0.071 A 
ATOM     13  N6  UNK d   1      -2.693  -5.450  22.297  0.00  0.00    -0.245 NA
ATOM     14  C12 UNK d   1      -2.068  -5.638  19.897  0.00  0.00     0.078 C 
ENDBRANCH   6   9
ENDBRANCH   1   4
BRANCH   1  15
ATOM     15  N13 UNK d   1      -6.233  -8.082  27.050  0.00  0.00    -0.158 NA
BRANCH  15  16
ATOM     16  C16 UNK d   1      -5.379  -9.122  27.042  0.00  0.00     0.093 A 
ATOM     17  C17 UNK d   1      -5.615 -10.241  27.880  0.00  0.00     0.065 A 
ATOM     18  C19 UNK d   1      -4.734 -11.339  27.887  0.00  0.00     0.051 A 
ATOM     19 Cl20 UNK d   1      -6.993 -10.295  28.926  0.00  0.00    -0.082 Cl
ATOM     20  C22 UNK d   1      -3.597 -11.350  27.059  0.00  0.00     0.057 A 
ATOM     21  C21 UNK d   1      -3.344 -10.249  26.218  0.00  0.00     0.058 A 
ATOM     22 Cl24 UNK d   1      -2.536 -12.713  27.091  0.00  0.00    -0.082 Cl
ATOM     23  C18 UNK d   1      -4.228  -9.152  26.215  0.00  0.00     0.059 A 
ATOM     24 Cl23 UNK d   1      -1.959 -10.221  25.184  0.00  0.00    -0.082 Cl
ENDBRANCH  15  16
ENDBRANCH   1  15
TORSDOF 4
ENDMDL
MODEL 5
REMARK VINA RESULT:    -6.827      4.188      8.791
REMARK INTER + INTRA:          -8.902
REMARK INTER:                  -8.266
REMARK INTRA:                  -0.636
REMARK UNBOUND:                -0.478
REMARK  4 active torsions:
REMARK  status: ('A' for Active; 'I' for Inactive)
REMARK    1  A    between atoms: C1_1  and  C2_2 
REMARK    2  A    between atoms: C7_7  and  S11_11 
REMARK    3  A    between atoms: S11_11  and  N13_13 
REMARK    4  A    between atoms: N13_13  and  C16_16 
ROOT
ATOM      1  S11 UNK d   1      -5.490  -8.234  27.221  0.00  0.00     0.290 S 
ATOM      2  O14 UNK d   1      -4.595  -7.717  28.268  0.00  0.00    -0.198 OA
ATOM      3  O15 UNK d   1      -6.916  -7.883  27.324  0.00  0.00    -0.198 OA
ENDROOT
BRANCH   1   4
ATOM      4  C7  UNK d   1      -4.964  -7.387  25.749  0.00  0.00     0.123 A 
ATOM      5  S3  UNK d   1      -4.041  -5.910  25.837  0.00  0.00    -0.074 SA
ATOM      6  C1  UNK d   1      -4.000  -5.792  24.094  0.00  0.00     0.035 A 
ATOM      7  C4  UNK d   1      -4.671  -6.836  23.506  0.00  0.00     0.023 A 
ATOM      8  C8  UNK d   1      -5.226  -7.747  24.453  0.00  0.00     0.034 A 
BRANCH   6   9
ATOM      9  C2  UNK d   1      -3.309  -4.673  23.463  0.00  0.00     0.081 A 
ATOM     10  C5  UNK d   1      -2.531  -4.678  22.328  0.00  0.00     0.084 A 
ATOM     11  S9  UNK d   1      -1.901  -3.101  21.941  0.00  0.00    -0.085 SA
ATOM     12  C10 UNK d   1      -2.726  -2.465  23.355  0.00  0.00     0.071 A 
ATOM     13  N6  UNK d   1      -3.403  -3.395  24.029  0.00  0.00    -0.245 NA
ATOM     14  C12 UNK d   1      -2.675  -1.033  23.761  0.00  0.00     0.078 C 
ENDBRANCH   6   9
ENDBRANCH   1   4
BRANCH   1  15
ATOM     15  N13 UNK d   1      -5.274  -9.821  26.966  0.00  0.00    -0.158 NA
BRANCH  15  16
ATOM     16  C16 UNK d   1      -4.402 -10.636  27.589  0.00  0.00     0.093 A 
ATOM     17  C17 UNK d   1      -3.173 -10.970  26.965  0.00  0.00     0.065 A 
ATOM     18  C19 UNK d   1      -2.248 -11.821  27.600  0.00  0.00     0.051 A 
ATOM     19 Cl20 UNK d   1      -2.769 -10.347  25.402  0.00  0.00    -0.082 Cl
ATOM     20  C22 UNK d   1      -2.523 -12.358  28.869  0.00  0.00     0.057 A 
ATOM     21  C21 UNK d   1      -3.737 -12.038  29.508  0.00  0.00     0.058 A 
ATOM     22 Cl24 UNK d   1      -1.366 -13.398  29.621  0.00  0.00    -0.082 Cl
ATOM     23  C18 UNK d   1      -4.660 -11.187  28.868  0.00  0.00     0.059 A 
ATOM     24 Cl23 UNK d   1      -4.116 -12.676  31.068  0.00  0.00    -0.082 Cl
ENDBRANCH  15  16
ENDBRANCH   1  15
TORSDOF 4
ENDMDL
MODEL 6
REMARK VINA RESULT:    -6.811      4.032      8.869
REMARK INTER + INTRA:          -8.882
REMARK INTER:                  -8.385
REMARK INTRA:                  -0.497
REMARK UNBOUND:                -0.478
REMARK  4 active torsions:
REMARK  status: ('A' for Active; 'I' for Inactive)
REMARK    1  A    between atoms: C1_1  and  C2_2 
REMARK    2  A    between atoms: C7_7  and  S11_11 
REMARK    3  A    between atoms: S11_11  and  N13_13 
REMARK    4  A    between atoms: N13_13  and  C16_16 
ROOT
ATOM      1  S11 UNK d   1      -5.154  -6.856  24.279  0.00  0.00     0.290 S 
ATOM      2  O14 UNK d   1      -6.493  -6.266  24.126  0.00  0.00    -0.198 OA
ATOM      3  O15 UNK d   1      -4.867  -8.076  23.508  0.00  0.00    -0.198 OA
ENDROOT
BRANCH   1   4
ATOM      4  C7  UNK d   1      -4.067  -5.648  23.558  0.00  0.00     0.123 A 
ATOM      5  S3  UNK d   1      -3.235  -5.962  22.059  0.00  0.00    -0.074 SA
ATOM      6  C1  UNK d   1      -2.455  -4.400  22.125  0.00  0.00     0.035 A 
ATOM      7  C4  UNK d   1      -2.826  -3.703  23.248  0.00  0.00     0.023 A 
ATOM      8  C8  UNK d   1      -3.745  -4.419  24.071  0.00  0.00     0.034 A 
BRANCH   6   9
ATOM      9  C2  UNK d   1      -1.542  -4.003  21.058  0.00  0.00     0.081 A 
ATOM     10  C5  UNK d   1      -0.916  -2.792  20.874  0.00  0.00     0.084 A 
ATOM     11  S9  UNK d   1       0.092  -2.768  19.454  0.00  0.00    -0.085 SA
ATOM     12  C10 UNK d   1      -0.372  -4.433  19.142  0.00  0.00     0.071 A 
ATOM     13  N6  UNK d   1      -1.213  -4.922  20.054  0.00  0.00    -0.245 NA
ATOM     14  C12 UNK d   1       0.123  -5.220  17.978  0.00  0.00     0.078 C 
ENDBRANCH   6   9
ENDBRANCH   1   4
BRANCH   1  15
ATOM     15  N13 UNK d   1      -4.734  -7.012  25.838  0.00  0.00    -0.158 NA
BRANCH  15  16
ATOM     16  C16 UNK d   1      -4.693  -8.146  26.562  0.00  0.00     0.093 A 
ATOM     17  C17 UNK d   1      -5.805  -8.521  27.356  0.00  0.00     0.065 A 
ATOM     18  C19 UNK d   1      -5.783  -9.703  28.122  0.00  0.00     0.051 A 
ATOM     19 Cl20 UNK d   1      -7.230  -7.539  27.416  0.00  0.00    -0.082 Cl
ATOM     20  C22 UNK d   1      -4.652 -10.539  28.114  0.00  0.00     0.057 A 
ATOM     21  C21 UNK d   1      -3.536 -10.186  27.330  0.00  0.00     0.058 A 
ATOM     22 Cl24 UNK d   1      -4.657 -11.983  29.063  0.00  0.00    -0.082 Cl
ATOM     23  C18 UNK d   1      -3.563  -9.002  26.568  0.00  0.00     0.059 A 
ATOM     24 Cl23 UNK d   1      -2.126 -11.184  27.291  0.00  0.00    -0.082 Cl
ENDBRANCH  15  16
ENDBRANCH   1  15
TORSDOF 4
ENDMDL
MODEL 7
REMARK VINA RESULT:    -6.601      4.005      7.808
REMARK INTER + INTRA:          -8.623
REMARK INTER:                  -7.683
REMARK INTRA:                  -0.940
REMARK UNBOUND:                -0.478
REMARK  4 active torsions:
REMARK  status: ('A' for Active; 'I' for Inactive)
REMARK    1  A    between atoms: C1_1  and  C2_2 
REMARK    2  A    between atoms: C7_7  and  S11_11 
REMARK    3  A    between atoms: S11_11  and  N13_13 
REMARK    4  A    between atoms: N13_13  and  C16_16 
ROOT
ATOM      1  S11 UNK d   1      -5.511  -7.503  27.911  0.00  0.00     0.290 S 
ATOM      2  O14 UNK d   1      -5.418  -6.918  29.258  0.00  0.00    -0.198 OA
ATOM      3  O15 UNK d   1      -6.793  -7.359  27.204  0.00  0.00    -0.198 OA
ENDROOT
BRANCH   1   4
ATOM      4  C7  UNK d   1      -4.392  -6.523  26.938  0.00  0.00     0.123 A 
ATOM      5  S3  UNK d   1      -4.674  -6.248  25.239  0.00  0.00    -0.074 SA
ATOM      6  C1  UNK d   1      -3.209  -5.304  25.113  0.00  0.00     0.035 A 
ATOM      7  C4  UNK d   1      -2.558  -5.228  26.320  0.00  0.00     0.023 A 
ATOM      8  C8  UNK d   1      -3.232  -5.929  27.363  0.00  0.00     0.034 A 
BRANCH   6   9
ATOM      9  C2  UNK d   1      -2.832  -4.724  23.829  0.00  0.00     0.081 A 
ATOM     10  C5  UNK d   1      -2.467  -3.428  23.550  0.00  0.00     0.084 A 
ATOM     11  S9  UNK d   1      -2.098  -3.183  21.865  0.00  0.00    -0.085 SA
ATOM     12  C10 UNK d   1      -2.456  -4.879  21.579  0.00  0.00     0.071 A 
ATOM     13  N6  UNK d   1      -2.817  -5.532  22.685  0.00  0.00    -0.245 NA
ATOM     14  C12 UNK d   1      -2.365  -5.523  20.239  0.00  0.00     0.078 C 
ENDBRANCH   6   9
ENDBRANCH   1   4
BRANCH   1  15
ATOM     15  N13 UNK d   1      -4.967  -9.031  27.874  0.00  0.00    -0.158 NA
BRANCH  15  16
ATOM     16  C16 UNK d   1      -3.919  -9.507  27.177  0.00  0.00     0.093 A 
ATOM     17  C17 UNK d   1      -2.631  -9.543  27.769  0.00  0.00     0.065 A 
ATOM     18  C19 UNK d   1      -1.520 -10.037  27.057  0.00  0.00     0.051 A 
ATOM     19 Cl20 UNK d   1      -2.377  -8.976  29.385  0.00  0.00    -0.082 Cl
ATOM     20  C22 UNK d   1      -1.667 -10.508  25.741  0.00  0.00     0.057 A 
ATOM     21  C21 UNK d   1      -2.938 -10.484  25.135  0.00  0.00     0.058 A 
ATOM     22 Cl24 UNK d   1      -0.285 -11.109  24.895  0.00  0.00    -0.082 Cl
ATOM     23  C18 UNK d   1      -4.045  -9.987  25.850  0.00  0.00     0.059 A 
ATOM     24 Cl23 UNK d   1      -3.163 -11.054  23.518  0.00  0.00    -0.082 Cl
ENDBRANCH  15  16
ENDBRANCH   1  15
TORSDOF 4
ENDMDL
MODEL 8
REMARK VINA RESULT:    -6.533      4.046      7.929
REMARK INTER + INTRA:          -8.538
REMARK INTER:                  -7.860
REMARK INTRA:                  -0.678
REMARK UNBOUND:                -0.478
REMARK  4 active torsions:
REMARK  status: ('A' for Active; 'I' for Inactive)
REMARK    1  A    between atoms: C1_1  and  C2_2 
REMARK    2  A    between atoms: C7_7  and  S11_11 
REMARK    3  A    between atoms: S11_11  and  N13_13 
REMARK    4  A    between atoms: N13_13  and  C16_16 
ROOT
ATOM      1  S11 UNK d   1      -5.590  -8.214  28.166  0.00  0.00     0.290 S 
ATOM      2  O14 UNK d   1      -5.966  -7.285  29.243  0.00  0.00    -0.198 OA
ATOM      3  O15 UNK d   1      -6.677  -8.741  27.324  0.00  0.00    -0.198 OA
ENDROOT
BRANCH   1   4
ATOM      4  C7  UNK d   1      -4.647  -7.211  27.041  0.00  0.00     0.123 A 
ATOM      5  S3  UNK d   1      -4.693  -7.495  25.322  0.00  0.00    -0.074 SA
ATOM      6  C1  UNK d   1      -3.563  -6.193  25.041  0.00  0.00     0.035 A 
ATOM      7  C4  UNK d   1      -3.184  -5.598  26.220  0.00  0.00     0.023 A 
ATOM      8  C8  UNK d   1      -3.801  -6.184  27.364  0.00  0.00     0.034 A 
BRANCH   6   9
ATOM      9  C2  UNK d   1      -3.149  -5.876  23.679  0.00  0.00     0.081 A 
ATOM     10  C5  UNK d   1      -2.988  -6.730  22.612  0.00  0.00     0.084 A 
ATOM     11  S9  UNK d   1      -2.476  -5.907  21.166  0.00  0.00    -0.085 SA
ATOM     12  C10 UNK d   1      -2.495  -4.397  22.063  0.00  0.00     0.071 A 
ATOM     13  N6  UNK d   1      -2.860  -4.549  23.337  0.00  0.00    -0.245 NA
ATOM     14  C12 UNK d   1      -2.139  -3.080  21.464  0.00  0.00     0.078 C 
ENDBRANCH   6   9
ENDBRANCH   1   4
BRANCH   1  15
ATOM     15  N13 UNK d   1      -4.610  -9.393  28.696  0.00  0.00    -0.158 NA
BRANCH  15  16
ATOM     16  C16 UNK d   1      -3.615  -9.994  28.017  0.00  0.00     0.093 A 
ATOM     17  C17 UNK d   1      -3.850 -11.227  27.358  0.00  0.00     0.065 A 
ATOM     18  C19 UNK d   1      -2.822 -11.872  26.642  0.00  0.00     0.051 A 
ATOM     19 Cl20 UNK d   1      -5.405 -11.984  27.411  0.00  0.00    -0.082 Cl
ATOM     20  C22 UNK d   1      -1.539 -11.304  26.566  0.00  0.00     0.057 A 
ATOM     21  C21 UNK d   1      -1.284 -10.079  27.212  0.00  0.00     0.058 A 
ATOM     22 Cl24 UNK d   1      -0.300 -12.120  25.679  0.00  0.00    -0.082 Cl
ATOM     23  C18 UNK d   1      -2.315  -9.438  27.928  0.00  0.00     0.059 A 
ATOM     24 Cl23 UNK d   1       0.279  -9.346  27.144  0.00  0.00    -0.082 Cl
ENDBRANCH  15  16
ENDBRANCH   1  15
TORSDOF 4
ENDMDL
MODEL 9
REMARK VINA RESULT:    -6.525      3.900      7.939
REMARK INTER + INTRA:          -8.528
REMARK INTER:                  -8.500
REMARK INTRA:                  -0.029
REMARK UNBOUND:                -0.478
REMARK  4 active torsions:
REMARK  status: ('A' for Active; 'I' for Inactive)
REMARK    1  A    between atoms: C1_1  and  C2_2 
REMARK    2  A    between atoms: C7_7  and  S11_11 
REMARK    3  A    between atoms: S11_11  and  N13_13 
REMARK    4  A    between atoms: N13_13  and  C16_16 
ROOT
ATOM      1  S11 UNK d   1      -2.663 -10.268  24.487  0.00  0.00     0.290 S 
ATOM      2  O14 UNK d   1      -3.649 -10.383  23.401  0.00  0.00    -0.198 OA
ATOM      3  O15 UNK d   1      -1.408 -11.021  24.337  0.00  0.00    -0.198 OA
ENDROOT
BRANCH   1   4
ATOM      4  C7  UNK d   1      -2.138  -8.571  24.413  0.00  0.00     0.123 A 
ATOM      5  S3  UNK d   1      -2.868  -7.448  23.297  0.00  0.00    -0.074 SA
ATOM      6  C1  UNK d   1      -1.818  -6.165  23.848  0.00  0.00     0.035 A 
ATOM      7  C4  UNK d   1      -0.962  -6.606  24.828  0.00  0.00     0.023 A 
ATOM      8  C8  UNK d   1      -1.142  -7.984  25.147  0.00  0.00     0.034 A 
BRANCH   6   9
ATOM      9  C2  UNK d   1      -1.933  -4.835  23.261  0.00  0.00     0.081 A 
ATOM     10  C5  UNK d   1      -1.584  -4.424  21.996  0.00  0.00     0.084 A 
ATOM     11  S9  UNK d   1      -1.900  -2.733  21.728  0.00  0.00    -0.085 SA
ATOM     12  C10 UNK d   1      -2.510  -2.625  23.372  0.00  0.00     0.071 A 
ATOM     13  N6  UNK d   1      -2.461  -3.786  24.026  0.00  0.00    -0.245 NA
ATOM     14  C12 UNK d   1      -3.031  -1.366  23.974  0.00  0.00     0.078 C 
ENDBRANCH   6   9
ENDBRANCH   1   4
BRANCH   1  15
ATOM     15  N13 UNK d   1      -3.337 -10.499  25.945  0.00  0.00    -0.158 NA
BRANCH  15  16
ATOM     16  C16 UNK d   1      -4.325  -9.781  26.510  0.00  0.00     0.093 A 
ATOM     17  C17 UNK d   1      -5.095 -10.337  27.562  0.00  0.00     0.065 A 
ATOM     18  C19 UNK d   1      -6.134  -9.603  28.167  0.00  0.00     0.051 A 
ATOM     19 Cl20 UNK d   1      -4.788 -11.941  28.139  0.00  0.00    -0.082 Cl
ATOM     20  C22 UNK d   1      -6.429  -8.297  27.738  0.00  0.00     0.057 A 
ATOM     21  C21 UNK d   1      -5.675  -7.724  26.695  0.00  0.00     0.058 A 
ATOM     22 Cl24 UNK d   1      -7.709  -7.422  28.502  0.00  0.00    -0.082 Cl
ATOM     23  C18 UNK d   1      -4.639  -8.463  26.093  0.00  0.00     0.059 A 
ATOM     24 Cl23 UNK d   1      -6.005  -6.121  26.138  0.00  0.00    -0.082 Cl
ENDBRANCH  15  16
ENDBRANCH   1  15
TORSDOF 4
ENDMDL
MODEL 10
REMARK VINA RESULT:    -6.438      3.788      7.855
REMARK INTER + INTRA:          -8.421
REMARK INTER:                  -7.712
REMARK INTRA:                  -0.710
REMARK UNBOUND:                -0.478
REMARK  4 active torsions:
REMARK  status: ('A' for Active; 'I' for Inactive)
REMARK    1  A    between atoms: C1_1  and  C2_2 
REMARK    2  A    between atoms: C7_7  and  S11_11 
REMARK    3  A    between atoms: S11_11  and  N13_13 
REMARK    4  A    between atoms: N13_13  and  C16_16 
ROOT
ATOM      1  S11 UNK d   1      -2.396  -9.696  25.136  0.00  0.00     0.290 S 
ATOM      2  O14 UNK d   1      -3.336 -10.713  24.638  0.00  0.00    -0.198 OA
ATOM      3  O15 UNK d   1      -0.983  -9.844  24.754  0.00  0.00    -0.198 OA
ENDROOT
BRANCH   1   4
ATOM      4  C7  UNK d   1      -2.895  -8.206  24.305  0.00  0.00     0.123 A 
ATOM      5  S3  UNK d   1      -1.820  -6.838  24.181  0.00  0.00    -0.074 SA
ATOM      6  C1  UNK d   1      -3.032  -5.920  23.321  0.00  0.00     0.035 A 
ATOM      7  C4  UNK d   1      -4.187  -6.645  23.160  0.00  0.00     0.023 A 
ATOM      8  C8  UNK d   1      -4.110  -7.951  23.726  0.00  0.00     0.034 A 
BRANCH   6   9
ATOM      9  C2  UNK d   1      -2.733  -4.561  22.883  0.00  0.00     0.081 A 
ATOM     10  C5  UNK d   1      -2.162  -4.148  21.702  0.00  0.00     0.084 A 
ATOM     11  S9  UNK d   1      -1.993  -2.417  21.608  0.00  0.00    -0.085 SA
ATOM     12  C10 UNK d   1      -2.717  -2.297  23.204  0.00  0.00     0.071 A 
ATOM     13  N6  UNK d   1      -3.041  -3.482  23.723  0.00  0.00    -0.245 NA
ATOM     14  C12 UNK d   1      -2.947  -1.004  23.907  0.00  0.00     0.078 C 
ENDBRANCH   6   9
ENDBRANCH   1   4
BRANCH   1  15
ATOM     15  N13 UNK d   1      -2.569  -9.438  26.728  0.00  0.00    -0.158 NA
BRANCH  15  16
ATOM     16  C16 UNK d   1      -3.542  -8.738  27.341  0.00  0.00     0.093 A 
ATOM     17  C17 UNK d   1      -3.291  -7.417  27.789  0.00  0.00     0.065 A 
ATOM     18  C19 UNK d   1      -4.295  -6.668  28.432  0.00  0.00     0.051 A 
ATOM     19 Cl20 UNK d   1      -1.741  -6.679  27.564  0.00  0.00    -0.082 Cl
ATOM     20  C22 UNK d   1      -5.572  -7.216  28.643  0.00  0.00     0.057 A 
ATOM     21  C21 UNK d   1      -5.844  -8.527  28.205  0.00  0.00     0.058 A 
ATOM     22 Cl24 UNK d   1      -6.783  -6.270  29.435  0.00  0.00    -0.082 Cl
ATOM     23  C18 UNK d   1      -4.836  -9.273  27.563  0.00  0.00     0.059 A 
ATOM     24 Cl23 UNK d   1      -7.400  -9.239  28.444  0.00  0.00    -0.082 Cl
ENDBRANCH  15  16
ENDBRANCH   1  15
TORSDOF 4
ENDMDL
