MODEL 1
REMARK VINA RESULT:    -6.150      0.000      0.000
REMARK INTER + INTRA:          -8.333
REMARK INTER:                  -7.768
REMARK INTRA:                  -0.565
REMARK UNBOUND:                -0.565
REMARK  5 active torsions:
REMARK  status: ('A' for Active; 'I' for Inactive)
REMARK    1  A    between atoms: C1_1  and  C4_16 
REMARK    2  A    between atoms: S1_7  and  C2_2 
REMARK    3  A    between atoms: C3_8  and  S1_7 
REMARK    4  A    between atoms: C5_9  and  O1_14 
REMARK    5  A    between atoms: C4_16  and  N1_17 
ROOT
ATOM      1  C1  INB d   0      -3.462  -5.524  25.794  0.00  0.00     0.014 A 
ATOM      2  C2  INB d   0      -4.238  -6.059  26.855  0.00  0.00     0.027 A 
ATOM      3  C6  INB d   0      -2.117  -5.164  26.037  0.00  0.00    -0.002 A 
ATOM      4  C7  INB d   0      -3.670  -6.200  28.138  0.00  0.00     0.006 A 
ATOM      5  C12 INB d   0      -1.553  -5.319  27.317  0.00  0.00    -0.000 A 
ATOM      6  C13 INB d   0      -2.331  -5.834  28.370  0.00  0.00     0.001 A 
ENDROOT
BRANCH   2   7
ATOM      7  S1  INB d   0      -5.922  -6.548  26.623  0.00  0.00    -0.085 SA
BRANCH   7   8
ATOM      8  C3  INB d   0      -5.859  -8.219  27.199  0.00  0.00     0.051 A 
ATOM      9  C8  INB d   0      -4.840  -9.067  26.720  0.00  0.00     0.008 A 
ATOM     10  C14 INB d   0      -4.766 -10.403  27.160  0.00  0.00     0.001 A 
ATOM     11  C15 INB d   0      -5.710 -10.893  28.082  0.00  0.00     0.002 A 
ATOM     12  C9  INB d   0      -6.727 -10.047  28.566  0.00  0.00     0.024 A 
ATOM     13  C5  INB d   0      -6.806  -8.708  28.129  0.00  0.00     0.095 A 
BRANCH  13  14
ATOM     14  O1  INB d   0      -7.800  -7.909  28.614  0.00  0.00    -0.358 OA
ATOM     15  H3  INB d   0      -8.286  -7.470  27.934  0.00  0.00     0.217 HD
ENDBRANCH  13  14
ENDBRANCH   7   8
ENDBRANCH   2   7
BRANCH   1  16
ATOM     16  C4  INB d   0      -4.021  -5.306  24.391  0.00  0.00     0.240 C 
BRANCH  16  17
ATOM     17  N1  INB d   0      -3.663  -6.409  23.465  0.00  0.00    -0.018 N 
ATOM     18  C10 INB d   0      -4.785  -7.355  23.269  0.00  0.00     0.246 C 
ATOM     19  C11 INB d   0      -3.112  -5.938  22.173  0.00  0.00     0.246 C 
ATOM     20  H18 INB d   0      -2.928  -6.931  23.918  0.00  0.00     0.284 HD
ENDBRANCH  16  17
ENDBRANCH   1  16
TORSDOF 5
ENDMDL
MODEL 2
REMARK VINA RESULT:    -6.083      2.285      3.479
REMARK INTER + INTRA:          -8.247
REMARK INTER:                  -7.741
REMARK INTRA:                  -0.507
REMARK UNBOUND:                -0.565
REMARK  5 active torsions:
REMARK  status: ('A' for Active; 'I' for Inactive)
REMARK    1  A    between atoms: C1_1  and  C4_16 
REMARK    2  A    between atoms: S1_7  and  C2_2 
REMARK    3  A    between atoms: C3_8  and  S1_7 
REMARK    4  A    between atoms: C5_9  and  O1_14 
REMARK    5  A    between atoms: C4_16  and  N1_17 
ROOT
ATOM      1  C1  INB d   0      -3.702  -7.167  23.775  0.00  0.00     0.014 A 
ATOM      2  C2  INB d   0      -4.540  -6.059  24.066  0.00  0.00     0.027 A 
ATOM      3  C6  INB d   0      -2.337  -6.942  23.489  0.00  0.00    -0.002 A 
ATOM      4  C7  INB d   0      -4.009  -4.753  24.042  0.00  0.00     0.006 A 
ATOM      5  C12 INB d   0      -1.811  -5.636  23.479  0.00  0.00    -0.000 A 
ATOM      6  C13 INB d   0      -2.649  -4.540  23.752  0.00  0.00     0.001 A 
ENDROOT
BRANCH   2   7
ATOM      7  S1  INB d   0      -6.254  -6.263  24.449  0.00  0.00    -0.085 SA
BRANCH   7   8
ATOM      8  C3  INB d   0      -6.176  -6.449  26.206  0.00  0.00     0.051 A 
ATOM      9  C8  INB d   0      -4.928  -6.325  26.850  0.00  0.00     0.008 A 
ATOM     10  C14 INB d   0      -4.834  -6.469  28.248  0.00  0.00     0.001 A 
ATOM     11  C15 INB d   0      -5.990  -6.736  29.006  0.00  0.00     0.002 A 
ATOM     12  C9  INB d   0      -7.239  -6.857  28.367  0.00  0.00     0.024 A 
ATOM     13  C5  INB d   0      -7.339  -6.713  26.967  0.00  0.00     0.095 A 
BRANCH  13  14
ATOM     14  O1  INB d   0      -8.562  -6.833  26.372  0.00  0.00    -0.358 OA
ATOM     15  H3  INB d   0      -9.222  -6.290  26.774  0.00  0.00     0.217 HD
ENDBRANCH  13  14
ENDBRANCH   7   8
ENDBRANCH   2   7
BRANCH   1  16
ATOM     16  C4  INB d   0      -4.215  -8.603  23.743  0.00  0.00     0.240 C 
BRANCH  16  17
ATOM     17  N1  INB d   0      -3.286  -9.547  24.414  0.00  0.00    -0.018 N 
ATOM     18  C10 INB d   0      -3.650  -9.771  25.831  0.00  0.00     0.246 C 
ATOM     19  C11 INB d   0      -3.116 -10.826  23.685  0.00  0.00     0.246 C 
ATOM     20  H18 INB d   0      -2.383  -9.098  24.421  0.00  0.00     0.284 HD
ENDBRANCH  16  17
ENDBRANCH   1  16
TORSDOF 5
ENDMDL
MODEL 3
REMARK VINA RESULT:    -6.004      1.645      2.115
REMARK INTER + INTRA:          -8.148
REMARK INTER:                  -7.917
REMARK INTRA:                  -0.230
REMARK UNBOUND:                -0.565
REMARK  5 active torsions:
REMARK  status: ('A' for Active; 'I' for Inactive)
REMARK    1  A    between atoms: C1_1  and  C4_16 
REMARK    2  A    between atoms: S1_7  and  C2_2 
REMARK    3  A    between atoms: C3_8  and  S1_7 
REMARK    4  A    between atoms: C5_9  and  O1_14 
REMARK    5  A    between atoms: C4_16  and  N1_17 
ROOT
ATOM      1  C1  INB d   0      -2.918  -4.777  24.904  0.00  0.00     0.014 A 
ATOM      2  C2  INB d   0      -3.792  -5.638  25.618  0.00  0.00     0.027 A 
ATOM      3  C6  INB d   0      -1.724  -4.341  25.521  0.00  0.00    -0.002 A 
ATOM      4  C7  INB d   0      -3.473  -6.025  26.936  0.00  0.00     0.006 A 
ATOM      5  C12 INB d   0      -1.407  -4.741  26.833  0.00  0.00    -0.000 A 
ATOM      6  C13 INB d   0      -2.284  -5.581  27.543  0.00  0.00     0.001 A 
ENDROOT
BRANCH   2   7
ATOM      7  S1  INB d   0      -5.295  -6.238  24.906  0.00  0.00    -0.085 SA
BRANCH   7   8
ATOM      8  C3  INB d   0      -6.058  -6.971  26.323  0.00  0.00     0.051 A 
ATOM      9  C8  INB d   0      -5.596  -8.225  26.773  0.00  0.00     0.008 A 
ATOM     10  C14 INB d   0      -6.185  -8.834  27.899  0.00  0.00     0.001 A 
ATOM     11  C15 INB d   0      -7.237  -8.190  28.577  0.00  0.00     0.002 A 
ATOM     12  C9  INB d   0      -7.698  -6.936  28.132  0.00  0.00     0.024 A 
ATOM     13  C5  INB d   0      -7.112  -6.321  27.005  0.00  0.00     0.095 A 
BRANCH  13  14
ATOM     14  O1  INB d   0      -7.577  -5.105  26.595  0.00  0.00    -0.358 OA
ATOM     15  H3  INB d   0      -8.496  -5.117  26.376  0.00  0.00     0.217 HD
ENDBRANCH  13  14
ENDBRANCH   7   8
ENDBRANCH   2   7
BRANCH   1  16
ATOM     16  C4  INB d   0      -3.216  -4.286  23.491  0.00  0.00     0.240 C 
BRANCH  16  17
ATOM     17  N1  INB d   0      -2.261  -4.828  22.493  0.00  0.00    -0.018 N 
ATOM     18  C10 INB d   0      -2.604  -6.210  22.089  0.00  0.00     0.246 C 
ATOM     19  C11 INB d   0      -2.071  -3.946  21.318  0.00  0.00     0.246 C 
ATOM     20  H18 INB d   0      -1.367  -4.883  22.958  0.00  0.00     0.284 HD
ENDBRANCH  16  17
ENDBRANCH   1  16
TORSDOF 5
ENDMDL
MODEL 4
REMARK VINA RESULT:    -5.924      2.613      3.516
REMARK INTER + INTRA:          -8.047
REMARK INTER:                  -7.478
REMARK INTRA:                  -0.569
REMARK UNBOUND:                -0.565
REMARK  5 active torsions:
REMARK  status: ('A' for Active; 'I' for Inactive)
REMARK    1  A    between atoms: C1_1  and  C4_16 
REMARK    2  A    between atoms: S1_7  and  C2_2 
REMARK    3  A    between atoms: C3_8  and  S1_7 
REMARK    4  A    between atoms: C5_9  and  O1_14 
REMARK    5  A    between atoms: C4_16  and  N1_17 
ROOT
ATOM      1  C1  INB d   0      -3.586  -5.965  23.889  0.00  0.00     0.014 A 
ATOM      2  C2  INB d   0      -4.775  -6.689  24.169  0.00  0.00     0.027 A 
ATOM      3  C6  INB d   0      -2.411  -6.674  23.554  0.00  0.00    -0.002 A 
ATOM      4  C7  INB d   0      -4.762  -8.099  24.136  0.00  0.00     0.006 A 
ATOM      5  C12 INB d   0      -2.408  -8.080  23.511  0.00  0.00    -0.000 A 
ATOM      6  C13 INB d   0      -3.583  -8.794  23.806  0.00  0.00     0.001 A 
ENDROOT
BRANCH   2   7
ATOM      7  S1  INB d   0      -6.289  -5.872  24.578  0.00  0.00    -0.085 SA
BRANCH   7   8
ATOM      8  C3  INB d   0      -6.431  -6.287  26.292  0.00  0.00     0.051 A 
ATOM      9  C8  INB d   0      -5.295  -6.166  27.118  0.00  0.00     0.008 A 
ATOM     10  C14 INB d   0      -5.378  -6.491  28.487  0.00  0.00     0.001 A 
ATOM     11  C15 INB d   0      -6.597  -6.936  29.032  0.00  0.00     0.002 A 
ATOM     12  C9  INB d   0      -7.734  -7.055  28.209  0.00  0.00     0.024 A 
ATOM     13  C5  INB d   0      -7.657  -6.731  26.838  0.00  0.00     0.095 A 
BRANCH  13  14
ATOM     14  O1  INB d   0      -8.775  -6.853  26.063  0.00  0.00    -0.358 OA
ATOM     15  H3  INB d   0      -8.652  -6.528  25.185  0.00  0.00     0.217 HD
ENDBRANCH  13  14
ENDBRANCH   7   8
ENDBRANCH   2   7
BRANCH   1  16
ATOM     16  C4  INB d   0      -3.516  -4.442  23.944  0.00  0.00     0.240 C 
BRANCH  16  17
ATOM     17  N1  INB d   0      -2.201  -3.923  23.493  0.00  0.00    -0.018 N 
ATOM     18  C10 INB d   0      -2.257  -3.394  22.111  0.00  0.00     0.246 C 
ATOM     19  C11 INB d   0      -1.600  -2.945  24.429  0.00  0.00     0.246 C 
ATOM     20  H18 INB d   0      -1.577  -4.716  23.467  0.00  0.00     0.284 HD
ENDBRANCH  16  17
ENDBRANCH   1  16
TORSDOF 5
ENDMDL
MODEL 5
REMARK VINA RESULT:    -5.763      2.396      3.313
REMARK INTER + INTRA:          -7.844
REMARK INTER:                  -7.393
REMARK INTRA:                  -0.452
REMARK UNBOUND:                -0.565
REMARK  5 active torsions:
REMARK  status: ('A' for Active; 'I' for Inactive)
REMARK    1  A    between atoms: C1_1  and  C4_16 
REMARK    2  A    between atoms: S1_7  and  C2_2 
REMARK    3  A    between atoms: C3_8  and  S1_7 
REMARK    4  A    between atoms: C5_9  and  O1_14 
REMARK    5  A    between atoms: C4_16  and  N1_17 
ROOT
ATOM      1  C1  INB d   0      -2.886  -7.312  24.340  0.00  0.00     0.014 A 
ATOM      2  C2  INB d   0      -4.168  -7.705  24.806  0.00  0.00     0.027 A 
ATOM      3  C6  INB d   0      -1.814  -8.230  24.417  0.00  0.00    -0.002 A 
ATOM      4  C7  INB d   0      -4.350  -8.990  25.359  0.00  0.00     0.006 A 
ATOM      5  C12 INB d   0      -2.006  -9.514  24.959  0.00  0.00    -0.000 A 
ATOM      6  C13 INB d   0      -3.274  -9.893  25.434  0.00  0.00     0.001 A 
ENDROOT
BRANCH   2   7
ATOM      7  S1  INB d   0      -5.561  -6.618  24.727  0.00  0.00    -0.085 SA
BRANCH   7   8
ATOM      8  C3  INB d   0      -6.042  -6.581  26.429  0.00  0.00     0.051 A 
ATOM      9  C8  INB d   0      -5.040  -6.525  27.419  0.00  0.00     0.008 A 
ATOM     10  C14 INB d   0      -5.393  -6.495  28.783  0.00  0.00     0.001 A 
ATOM     11  C15 INB d   0      -6.749  -6.521  29.159  0.00  0.00     0.002 A 
ATOM     12  C9  INB d   0      -7.753  -6.574  28.172  0.00  0.00     0.024 A 
ATOM     13  C5  INB d   0      -7.405  -6.604  26.805  0.00  0.00     0.095 A 
BRANCH  13  14
ATOM     14  O1  INB d   0      -8.397  -6.653  25.868  0.00  0.00    -0.358 OA
ATOM     15  H3  INB d   0      -8.755  -5.803  25.665  0.00  0.00     0.217 HD
ENDBRANCH  13  14
ENDBRANCH   7   8
ENDBRANCH   2   7
BRANCH   1  16
ATOM     16  C4  INB d   0      -2.606  -5.927  23.766  0.00  0.00     0.240 C 
BRANCH  16  17
ATOM     17  N1  INB d   0      -1.797  -5.986  22.523  0.00  0.00    -0.018 N 
ATOM     18  C10 INB d   0      -2.640  -5.929  21.308  0.00  0.00     0.246 C 
ATOM     19  C11 INB d   0      -0.707  -4.982  22.480  0.00  0.00     0.246 C 
ATOM     20  H18 INB d   0      -1.353  -6.892  22.517  0.00  0.00     0.284 HD
ENDBRANCH  16  17
ENDBRANCH   1  16
TORSDOF 5
ENDMDL
MODEL 6
REMARK VINA RESULT:    -5.667      2.358      3.558
REMARK INTER + INTRA:          -7.722
REMARK INTER:                  -7.053
REMARK INTRA:                  -0.669
REMARK UNBOUND:                -0.565
REMARK  5 active torsions:
REMARK  status: ('A' for Active; 'I' for Inactive)
REMARK    1  A    between atoms: C1_1  and  C4_16 
REMARK    2  A    between atoms: S1_7  and  C2_2 
REMARK    3  A    between atoms: C3_8  and  S1_7 
REMARK    4  A    between atoms: C5_9  and  O1_14 
REMARK    5  A    between atoms: C4_16  and  N1_17 
ROOT
ATOM      1  C1  INB d   0      -2.835  -8.387  24.634  0.00  0.00     0.014 A 
ATOM      2  C2  INB d   0      -3.326  -8.173  25.948  0.00  0.00     0.027 A 
ATOM      3  C6  INB d   0      -2.809  -9.700  24.113  0.00  0.00    -0.002 A 
ATOM      4  C7  INB d   0      -3.756  -9.270  26.724  0.00  0.00     0.006 A 
ATOM      5  C12 INB d   0      -3.252 -10.788  24.888  0.00  0.00    -0.000 A 
ATOM      6  C13 INB d   0      -3.722 -10.574  26.196  0.00  0.00     0.001 A 
ENDROOT
BRANCH   2   7
ATOM      7  S1  INB d   0      -3.404  -6.557  26.662  0.00  0.00    -0.085 SA
BRANCH   7   8
ATOM      8  C3  INB d   0      -5.071  -6.543  27.256  0.00  0.00     0.051 A 
ATOM      9  C8  INB d   0      -6.122  -6.382  26.330  0.00  0.00     0.008 A 
ATOM     10  C14 INB d   0      -7.459  -6.365  26.773  0.00  0.00     0.001 A 
ATOM     11  C15 INB d   0      -7.748  -6.511  28.143  0.00  0.00     0.002 A 
ATOM     12  C9  INB d   0      -6.700  -6.675  29.070  0.00  0.00     0.024 A 
ATOM     13  C5  INB d   0      -5.359  -6.693  28.632  0.00  0.00     0.095 A 
BRANCH  13  14
ATOM     14  O1  INB d   0      -4.362  -6.856  29.551  0.00  0.00    -0.358 OA
ATOM     15  H3  INB d   0      -3.618  -6.296  29.391  0.00  0.00     0.217 HD
ENDBRANCH  13  14
ENDBRANCH   7   8
ENDBRANCH   2   7
BRANCH   1  16
ATOM     16  C4  INB d   0      -2.316  -7.255  23.753  0.00  0.00     0.240 C 
BRANCH  16  17
ATOM     17  N1  INB d   0      -3.159  -7.048  22.548  0.00  0.00    -0.018 N 
ATOM     18  C10 INB d   0      -4.528  -6.607  22.898  0.00  0.00     0.246 C 
ATOM     19  C11 INB d   0      -2.538  -6.156  21.541  0.00  0.00     0.246 C 
ATOM     20  H18 INB d   0      -3.255  -7.952  22.112  0.00  0.00     0.284 HD
ENDBRANCH  16  17
ENDBRANCH   1  16
TORSDOF 5
ENDMDL
MODEL 7
REMARK VINA RESULT:    -5.634      2.249      3.585
REMARK INTER + INTRA:          -7.680
REMARK INTER:                  -7.065
REMARK INTRA:                  -0.615
REMARK UNBOUND:                -0.565
REMARK  5 active torsions:
REMARK  status: ('A' for Active; 'I' for Inactive)
REMARK    1  A    between atoms: C1_1  and  C4_16 
REMARK    2  A    between atoms: S1_7  and  C2_2 
REMARK    3  A    between atoms: C3_8  and  S1_7 
REMARK    4  A    between atoms: C5_9  and  O1_14 
REMARK    5  A    between atoms: C4_16  and  N1_17 
ROOT
ATOM      1  C1  INB d   0      -5.388  -6.779  26.818  0.00  0.00     0.014 A 
ATOM      2  C2  INB d   0      -5.528  -8.164  27.096  0.00  0.00     0.027 A 
ATOM      3  C6  INB d   0      -6.295  -5.865  27.398  0.00  0.00    -0.002 A 
ATOM      4  C7  INB d   0      -6.580  -8.611  27.921  0.00  0.00     0.006 A 
ATOM      5  C12 INB d   0      -7.335  -6.317  28.232  0.00  0.00    -0.000 A 
ATOM      6  C13 INB d   0      -7.480  -7.692  28.491  0.00  0.00     0.001 A 
ENDROOT
BRANCH   2   7
ATOM      7  S1  INB d   0      -4.421  -9.366  26.419  0.00  0.00    -0.085 SA
BRANCH   7   8
ATOM      8  C3  INB d   0      -3.996 -10.275  27.876  0.00  0.00     0.051 A 
ATOM      9  C8  INB d   0      -3.031  -9.742  28.754  0.00  0.00     0.008 A 
ATOM     10  C14 INB d   0      -2.672 -10.445  29.922  0.00  0.00     0.001 A 
ATOM     11  C15 INB d   0      -3.279 -11.681  30.214  0.00  0.00     0.002 A 
ATOM     12  C9  INB d   0      -4.246 -12.214  29.339  0.00  0.00     0.024 A 
ATOM     13  C5  INB d   0      -4.610 -11.515  28.169  0.00  0.00     0.095 A 
BRANCH  13  14
ATOM     14  O1  INB d   0      -5.551 -12.053  27.340  0.00  0.00    -0.358 OA
ATOM     15  H3  INB d   0      -5.258 -12.843  26.913  0.00  0.00     0.217 HD
ENDBRANCH  13  14
ENDBRANCH   7   8
ENDBRANCH   2   7
BRANCH   1  16
ATOM     16  C4  INB d   0      -4.299  -6.227  25.903  0.00  0.00     0.240 C 
BRANCH  16  17
ATOM     17  N1  INB d   0      -4.850  -5.691  24.633  0.00  0.00    -0.018 N 
ATOM     18  C10 INB d   0      -3.987  -4.636  24.054  0.00  0.00     0.246 C 
ATOM     19  C11 INB d   0      -5.171  -6.742  23.639  0.00  0.00     0.246 C 
ATOM     20  H18 INB d   0      -5.723  -5.243  24.870  0.00  0.00     0.284 HD
ENDBRANCH  16  17
ENDBRANCH   1  16
TORSDOF 5
ENDMDL
MODEL 8
REMARK VINA RESULT:    -5.633      2.986      6.086
REMARK INTER + INTRA:          -7.679
REMARK INTER:                  -6.989
REMARK INTRA:                  -0.691
REMARK UNBOUND:                -0.565
REMARK  5 active torsions:
REMARK  status: ('A' for Active; 'I' for Inactive)
REMARK    1  A    between atoms: C1_1  and  C4_16 
REMARK    2  A    between atoms: S1_7  and  C2_2 
REMARK    3  A    between atoms: C3_8  and  S1_7 
REMARK    4  A    between atoms: C5_9  and  O1_14 
REMARK    5  A    between atoms: C4_16  and  N1_17 
ROOT
ATOM      1  C1  INB d   0      -4.495  -8.356  25.906  0.00  0.00     0.014 A 
ATOM      2  C2  INB d   0      -4.436  -8.115  24.508  0.00  0.00     0.027 A 
ATOM      3  C6  INB d   0      -3.866  -9.506  26.433  0.00  0.00    -0.002 A 
ATOM      4  C7  INB d   0      -3.778  -9.033  23.664  0.00  0.00     0.006 A 
ATOM      5  C12 INB d   0      -3.199 -10.412  25.587  0.00  0.00    -0.000 A 
ATOM      6  C13 INB d   0      -3.159 -10.178  24.201  0.00  0.00     0.001 A 
ENDROOT
BRANCH   2   7
ATOM      7  S1  INB d   0      -5.185  -6.689  23.777  0.00  0.00    -0.085 SA
BRANCH   7   8
ATOM      8  C3  INB d   0      -3.782  -5.623  23.629  0.00  0.00     0.051 A 
ATOM      9  C8  INB d   0      -3.404  -4.837  24.737  0.00  0.00     0.008 A 
ATOM     10  C14 INB d   0      -2.291  -3.977  24.649  0.00  0.00     0.001 A 
ATOM     11  C15 INB d   0      -1.553  -3.903  23.453  0.00  0.00     0.002 A 
ATOM     12  C9  INB d   0      -1.926  -4.691  22.345  0.00  0.00     0.024 A 
ATOM     13  C5  INB d   0      -3.039  -5.553  22.428  0.00  0.00     0.095 A 
BRANCH  13  14
ATOM     14  O1  INB d   0      -3.378  -6.306  21.341  0.00  0.00    -0.358 OA
ATOM     15  H3  INB d   0      -2.732  -6.963  21.132  0.00  0.00     0.217 HD
ENDBRANCH  13  14
ENDBRANCH   7   8
ENDBRANCH   2   7
BRANCH   1  16
ATOM     16  C4  INB d   0      -5.223  -7.429  26.873  0.00  0.00     0.240 C 
BRANCH  16  17
ATOM     17  N1  INB d   0      -6.653  -7.793  27.033  0.00  0.00    -0.018 N 
ATOM     18  C10 INB d   0      -6.901  -8.528  28.294  0.00  0.00     0.246 C 
ATOM     19  C11 INB d   0      -7.575  -6.644  26.880  0.00  0.00     0.246 C 
ATOM     20  H18 INB d   0      -6.867  -8.435  26.285  0.00  0.00     0.284 HD
ENDBRANCH  16  17
ENDBRANCH   1  16
TORSDOF 5
ENDMDL
MODEL 9
REMARK VINA RESULT:    -5.570      1.298      3.237
REMARK INTER + INTRA:          -7.600
REMARK INTER:                  -7.006
REMARK INTRA:                  -0.594
REMARK UNBOUND:                -0.565
REMARK  5 active torsions:
REMARK  status: ('A' for Active; 'I' for Inactive)
REMARK    1  A    between atoms: C1_1  and  C4_16 
REMARK    2  A    between atoms: S1_7  and  C2_2 
REMARK    3  A    between atoms: C3_8  and  S1_7 
REMARK    4  A    between atoms: C5_9  and  O1_14 
REMARK    5  A    between atoms: C4_16  and  N1_17 
ROOT
ATOM      1  C1  INB d   0      -3.613  -5.936  25.363  0.00  0.00     0.014 A 
ATOM      2  C2  INB d   0      -4.976  -6.333  25.377  0.00  0.00     0.027 A 
ATOM      3  C6  INB d   0      -2.881  -6.028  24.158  0.00  0.00    -0.002 A 
ATOM      4  C7  INB d   0      -5.573  -6.835  24.203  0.00  0.00     0.006 A 
ATOM      5  C12 INB d   0      -3.488  -6.519  22.986  0.00  0.00    -0.000 A 
ATOM      6  C13 INB d   0      -4.833  -6.926  23.009  0.00  0.00     0.001 A 
ENDROOT
BRANCH   2   7
ATOM      7  S1  INB d   0      -5.960  -6.231  26.843  0.00  0.00    -0.085 SA
BRANCH   7   8
ATOM      8  C3  INB d   0      -5.946  -7.921  27.364  0.00  0.00     0.051 A 
ATOM      9  C8  INB d   0      -4.891  -8.756  26.941  0.00  0.00     0.008 A 
ATOM     10  C14 INB d   0      -4.854 -10.107  27.339  0.00  0.00     0.001 A 
ATOM     11  C15 INB d   0      -5.872 -10.626  28.162  0.00  0.00     0.002 A 
ATOM     12  C9  INB d   0      -6.926  -9.793  28.589  0.00  0.00     0.024 A 
ATOM     13  C5  INB d   0      -6.967  -8.440  28.193  0.00  0.00     0.095 A 
BRANCH  13  14
ATOM     14  O1  INB d   0      -7.998  -7.654  28.623  0.00  0.00    -0.358 OA
ATOM     15  H3  INB d   0      -8.801  -7.810  28.150  0.00  0.00     0.217 HD
ENDBRANCH  13  14
ENDBRANCH   7   8
ENDBRANCH   2   7
BRANCH   1  16
ATOM     16  C4  INB d   0      -2.890  -5.422  26.604  0.00  0.00     0.240 C 
BRANCH  16  17
ATOM     17  N1  INB d   0      -2.248  -6.515  27.375  0.00  0.00    -0.018 N 
ATOM     18  C10 INB d   0      -0.785  -6.564  27.158  0.00  0.00     0.246 C 
ATOM     19  C11 INB d   0      -2.586  -6.497  28.818  0.00  0.00     0.246 C 
ATOM     20  H18 INB d   0      -2.618  -7.378  27.005  0.00  0.00     0.284 HD
ENDBRANCH  16  17
ENDBRANCH   1  16
TORSDOF 5
ENDMDL
MODEL 10
REMARK VINA RESULT:    -5.538      2.849      5.922
REMARK INTER + INTRA:          -7.560
REMARK INTER:                  -6.924
REMARK INTRA:                  -0.636
REMARK UNBOUND:                -0.565
REMARK  5 active torsions:
REMARK  status: ('A' for Active; 'I' for Inactive)
REMARK    1  A    between atoms: C1_1  and  C4_16 
REMARK    2  A    between atoms: S1_7  and  C2_2 
REMARK    3  A    between atoms: C3_8  and  S1_7 
REMARK    4  A    between atoms: C5_9  and  O1_14 
REMARK    5  A    between atoms: C4_16  and  N1_17 
ROOT
ATOM      1  C1  INB d   0      -5.441  -8.226  27.489  0.00  0.00     0.014 A 
ATOM      2  C2  INB d   0      -5.514  -7.633  26.201  0.00  0.00     0.027 A 
ATOM      3  C6  INB d   0      -6.372  -7.840  28.478  0.00  0.00    -0.002 A 
ATOM      4  C7  INB d   0      -6.493  -6.654  25.933  0.00  0.00     0.006 A 
ATOM      5  C12 INB d   0      -7.355  -6.871  28.200  0.00  0.00    -0.000 A 
ATOM      6  C13 INB d   0      -7.413  -6.274  26.928  0.00  0.00     0.001 A 
ENDROOT
BRANCH   2   7
ATOM      7  S1  INB d   0      -4.394  -8.077  24.906  0.00  0.00    -0.085 SA
BRANCH   7   8
ATOM      8  C3  INB d   0      -3.661  -6.506  24.556  0.00  0.00     0.051 A 
ATOM      9  C8  INB d   0      -3.079  -5.775  25.612  0.00  0.00     0.008 A 
ATOM     10  C14 INB d   0      -2.489  -4.520  25.363  0.00  0.00     0.001 A 
ATOM     11  C15 INB d   0      -2.478  -3.995  24.057  0.00  0.00     0.002 A 
ATOM     12  C9  INB d   0      -3.055  -4.725  23.000  0.00  0.00     0.024 A 
ATOM     13  C5  INB d   0      -3.647  -5.982  23.243  0.00  0.00     0.095 A 
BRANCH  13  14
ATOM     14  O1  INB d   0      -4.198  -6.669  22.200  0.00  0.00    -0.358 OA
ATOM     15  H3  INB d   0      -3.571  -6.877  21.524  0.00  0.00     0.217 HD
ENDBRANCH  13  14
ENDBRANCH   7   8
ENDBRANCH   2   7
BRANCH   1  16
ATOM     16  C4  INB d   0      -4.385  -9.261  27.862  0.00  0.00     0.240 C 
BRANCH  16  17
ATOM     17  N1  INB d   0      -4.956 -10.624  27.996  0.00  0.00    -0.018 N 
ATOM     18  C10 INB d   0      -4.622 -11.484  26.838  0.00  0.00     0.246 C 
ATOM     19  C11 INB d   0      -4.617 -11.282  29.280  0.00  0.00     0.246 C 
ATOM     20  H18 INB d   0      -5.959 -10.513  27.986  0.00  0.00     0.284 HD
ENDBRANCH  16  17
ENDBRANCH   1  16
TORSDOF 5
ENDMDL
