REMARK  3 active torsions:
REMARK  status: ('A' for Active; 'I' for Inactive)
REMARK    1  A    between atoms: C1_1  and  O2_2 
REMARK    2  A    between atoms: O2_2  and  C5_5 
REMARK    3  A    between atoms: C16_16  and  N17_17 
ROOT
ATOM      1  O2  UNK d   1       0.167  -1.228   1.471  0.00  0.00    -0.292 OA
ENDROOT
BRANCH   1   2
ATOM      2  C1  UNK d   1      -1.036  -0.753   1.011  0.00  0.00     0.079 A 
ATOM      3  C3  UNK d   1      -1.838  -1.554   0.175  0.00  0.00     0.045 A 
ATOM      4  C6  UNK d   1      -3.078  -1.075  -0.294  0.00  0.00    -0.037 A 
ATOM      5  C10 UNK d   1      -3.521   0.216   0.082  0.00  0.00     0.046 A 
ATOM      6  C11 UNK d   1      -3.923  -1.953  -1.199  0.00  0.00     0.050 C 
ATOM      7  C7  UNK d   1      -2.720   1.018   0.928  0.00  0.00    -0.037 A 
ATOM      8 Cl15 UNK d   1      -5.043   0.811  -0.492  0.00  0.00    -0.083 Cl
ATOM      9  C4  UNK d   1      -1.481   0.528   1.391  0.00  0.00     0.045 A 
ATOM     10  C12 UNK d   1      -3.176   2.405   1.345  0.00  0.00     0.050 C 
ENDBRANCH   1   2
BRANCH   1  11
ATOM     11  C5  UNK d   1       1.328  -0.987   0.765  0.00  0.00     0.169 A 
ATOM     12  C8  UNK d   1       2.549  -1.461   1.286  0.00  0.00     0.060 A 
ATOM     13  C13 UNK d   1       3.734  -1.216   0.568  0.00  0.00     0.035 A 
ATOM     14  C16 UNK d   1       3.657  -0.506  -0.647  0.00  0.00     0.043 A 
ATOM     15  C14 UNK d   1       2.389  -0.072  -1.087  0.00  0.00     0.148 A 
ATOM     16  N9  UNK d   1       1.248  -0.303  -0.404  0.00  0.00    -0.235 NA
BRANCH  14  17
ATOM     17  N17 UNK d   1       4.805  -0.239  -1.393  0.00  0.00    -0.398 N 
ATOM     18  H29 UNK d   1       4.762   0.269  -2.265  0.00  0.00     0.156 HD
ATOM     19  H30 UNK d   1       5.718  -0.545  -1.088  0.00  0.00     0.156 HD
ENDBRANCH  14  17
ENDBRANCH   1  11
TORSDOF 3
