@<TRIPOS>MOLECULE
./may3.pdb
 30 31 0 0 0
SMALL
GASTEIGER

@<TRIPOS>ATOM
      1  C1        -1.0360   -0.7530    1.0110 C.ar    1  UNK1        0.1309
      2  O2         0.1670   -1.2280    1.4710 O.3     1  UNK1       -0.4380
      3  C3        -1.8380   -1.5540    0.1750 C.ar    1  UNK1       -0.0150
      4  C4        -1.4810    0.5280    1.3910 C.ar    1  UNK1       -0.0150
      5  C5         1.3280   -0.9870    0.7650 C.ar    1  UNK1        0.2206
      6  C6        -3.0780   -1.0750   -0.2940 C.ar    1  UNK1       -0.0284
      7  C7        -2.7200    1.0180    0.9280 C.ar    1  UNK1       -0.0284
      8  C8         2.5490   -1.4610    1.2860 C.ar    1  UNK1        0.0021
      9  N9         1.2480   -0.3030   -0.4040 N.ar    1  UNK1       -0.2192
     10  C10       -3.5210    0.2160    0.0820 C.ar    1  UNK1        0.0470
     11  C11       -3.9230   -1.9530   -1.1990 C.3     1  UNK1       -0.0382
     12  C12       -3.1760    2.4050    1.3450 C.3     1  UNK1       -0.0382
     13  C13        3.7340   -1.2160    0.5680 C.ar    1  UNK1       -0.0345
     14  C14        2.3890   -0.0720   -1.0870 C.ar    1  UNK1        0.0520
     15 Cl15       -5.0430    0.8110   -0.4920 Cl      1  UNK1       -0.0830
     16  C16        3.6570   -0.5060   -0.6470 C.ar    1  UNK1        0.0431
     17  N17        4.8050   -0.2390   -1.3930 N.pl3   1  UNK1       -0.3568
     18  H18       -1.4920   -2.5370   -0.1070 H       1  UNK1        0.0657
     19  H19       -0.8630    1.1340    2.0360 H       1  UNK1        0.0657
     20  H20        2.5740   -2.0020    2.2210 H       1  UNK1        0.0671
     21  H21       -3.4390   -2.9110   -1.3900 H       1  UNK1        0.0278
     22  H22       -4.8920   -2.1510   -0.7410 H       1  UNK1        0.0278
     23  H23       -4.0880   -1.4630   -2.1590 H       1  UNK1        0.0278
     24  H24       -4.1210    2.3480    1.8860 H       1  UNK1        0.0278
     25  H25       -2.4450    2.8870    1.9940 H       1  UNK1        0.0278
     26  H26       -3.3160    3.0380    0.4680 H       1  UNK1        0.0278
     27  H27        4.6830   -1.5680    0.9450 H       1  UNK1        0.0638
     28  H28        2.2850    0.4760   -2.0130 H       1  UNK1        0.0849
     29  H29        4.7620    0.2690   -2.2650 H       1  UNK1        0.1424
     30  H30        5.7180   -0.5450   -1.0880 H       1  UNK1        0.1424
@<TRIPOS>BOND
     1     1     2    1
     2     1     3   ar
     3     1     4   ar
     4     2     5    1
     5     3     6   ar
     6     3    18    1
     7     4     7   ar
     8     4    19    1
     9     5     8   ar
    10     5     9   ar
    11     6    10   ar
    12     6    11    1
    13     7    12    1
    14     7    10   ar
    15     8    13   ar
    16     8    20    1
    17     9    14   ar
    18    10    15    1
    19    11    21    1
    20    11    22    1
    21    11    23    1
    22    12    24    1
    23    12    25    1
    24    12    26    1
    25    13    16   ar
    26    13    27    1
    27    14    16   ar
    28    14    28    1
    29    16    17    1
    30    17    29    1
    31    17    30    1
