@<TRIPOS>MOLECULE
./may4.pdb
 24 25 0 0 0
SMALL
GASTEIGER

@<TRIPOS>ATOM
      1  C1         0.0230   -0.4360   -0.4780 C.ar    1  UNK1        0.2207
      2  O2        -1.2350   -0.6220   -1.0110 O.3     1  UNK1       -0.4352
      3  C3         0.9830   -1.4560   -0.6250 C.ar    1  UNK1        0.0026
      4  N4         0.2880    0.7300    0.1600 N.ar    1  UNK1       -0.2187
      5  C5        -2.2840    0.1470   -0.5720 C.ar    1  UNK1        0.1654
      6  C6         2.2680   -1.2600   -0.0830 C.ar    1  UNK1       -0.0249
      7  C7         1.5220    0.9090    0.6770 C.ar    1  UNK1        0.0616
      8  C8        -2.9010   -0.1250    0.6680 C.ar    1  UNK1        0.1655
      9  C9        -2.7610    1.2040   -1.3750 C.ar    1  UNK1       -0.0164
     10  C10        2.5560   -0.0510    0.5890 C.ar    1  UNK1        0.1444
     11  C11       -3.9820    0.6640    1.1060 C.ar    1  UNK1       -0.0228
     12  F12       -2.4550   -1.1450    1.4400 F       1  UNK1       -0.2016
     13  C13       -3.8430    1.9920   -0.9360 C.ar    1  UNK1       -0.0581
     14  N14        3.8850    0.2010    1.1740 N.pl3   1  UNK1        0.0579
     15  C15       -4.4520    1.7240    0.3050 C.ar    1  UNK1       -0.0588
     16  O16        4.0750    1.2710    1.7440 O.2     1  UNK1       -0.1261
     17  O17        4.7410   -0.6700    1.0630 O.2     1  UNK1       -0.1261
     18  H18        0.7380   -2.3720   -1.1430 H       1  UNK1        0.0671
     19  H19        3.0140   -2.0340   -0.1860 H       1  UNK1        0.0642
     20  H20        1.6790    1.8540    1.1760 H       1  UNK1        0.0854
     21  H21       -2.2950    1.4110   -2.3270 H       1  UNK1        0.0655
     22  H22       -4.4510    0.4570    2.0560 H       1  UNK1        0.0647
     23  H23       -4.2040    2.8040   -1.5510 H       1  UNK1        0.0619
     24  H24       -5.2810    2.3290    0.6420 H       1  UNK1        0.0618
@<TRIPOS>BOND
     1     1     2    1
     2     1     3   ar
     3     1     4   ar
     4     2     5    1
     5     3     6   ar
     6     3    18    1
     7     4     7   ar
     8     5     8   ar
     9     5     9   ar
    10     6    10   ar
    11     6    19    1
    12     7    10   ar
    13     7    20    1
    14     8    11   ar
    15     8    12    1
    16     9    13   ar
    17     9    21    1
    18    10    14    1
    19    11    15   ar
    20    11    22    1
    21    13    15   ar
    22    13    23    1
    23    14    16    2
    24    14    17    2
    25    15    24    1
