REMARK  3 active torsions:
REMARK  status: ('A' for Active; 'I' for Inactive)
REMARK    1  A    between atoms: C1_1  and  O2_2 
REMARK    2  A    between atoms: O2_2  and  C5_5 
REMARK    3  A    between atoms: C10_10  and  N14_14 
ROOT
ATOM      1  C1  UNK d   1       0.023  -0.436  -0.478  0.00  0.00     0.169 A 
ATOM      2  C3  UNK d   1       0.983  -1.456  -0.625  0.00  0.00     0.061 A 
ATOM      3  N4  UNK d   1       0.288   0.730   0.160  0.00  0.00    -0.234 NA
ATOM      4  C6  UNK d   1       2.268  -1.260  -0.083  0.00  0.00     0.042 A 
ATOM      5  C7  UNK d   1       1.522   0.909   0.677  0.00  0.00     0.155 A 
ATOM      6  C10 UNK d   1       2.556  -0.051   0.589  0.00  0.00     0.120 A 
ENDROOT
BRANCH   1   7
ATOM      7  O2  UNK d   1      -1.235  -0.622  -1.011  0.00  0.00    -0.289 OA
BRANCH   7   8
ATOM      8  C5  UNK d   1      -2.284   0.147  -0.572  0.00  0.00     0.116 A 
ATOM      9  C8  UNK d   1      -2.901  -0.125   0.668  0.00  0.00     0.150 A 
ATOM     10  C11 UNK d   1      -3.982   0.664   1.106  0.00  0.00     0.045 A 
ATOM     11  F12 UNK d   1      -2.455  -1.145   1.440  0.00  0.00    -0.203 F 
ATOM     12  C15 UNK d   1      -4.452   1.724   0.305  0.00  0.00     0.003 A 
ATOM     13  C13 UNK d   1      -3.843   1.992  -0.936  0.00  0.00     0.003 A 
ATOM     14  C9  UNK d   1      -2.761   1.204  -1.375  0.00  0.00     0.040 A 
ENDBRANCH   7   8
ENDBRANCH   1   7
BRANCH   6  15
ATOM     15  N14 UNK d   1       3.885   0.201   1.174  0.00  0.00    -0.114 N 
ATOM     16  O16 UNK d   1       4.075   1.271   1.744  0.00  0.00    -0.532 OA
ATOM     17  O17 UNK d   1       4.741  -0.670   1.063  0.00  0.00    -0.532 OA
ENDBRANCH   6  15
TORSDOF 3
