@<TRIPOS>MOLECULE
./may5.pdb
 42 44 0 0 0
SMALL
GASTEIGER

@<TRIPOS>ATOM
      1  C1        -2.3690   -0.4530   -0.3410 C.ar    1  UNK1        0.1783
      2  C2        -2.3760    0.6930    0.4940 C.ar    1  UNK1        0.2103
      3  O3        -1.1900   -1.0070   -0.7780 O.3     1  UNK1       -0.4075
      4  C4        -3.5910   -1.0000   -0.7870 C.ar    1  UNK1       -0.0153
      5  O5        -1.2010    1.2420    0.9470 O.3     1  UNK1       -0.4046
      6  C6        -3.6050    1.2410    0.9180 C.ar    1  UNK1        0.1692
      7  C7        -0.4840   -1.8140    0.0390 C.2     1  UNK1        0.4100
      8  C8        -4.8140   -0.4380   -0.3740 C.ar    1  UNK1       -0.0553
      9  C9        -0.5110    2.0880    0.1550 C.2     1  UNK1        0.4101
     10  C10       -4.8200    0.6790    0.4830 C.ar    1  UNK1       -0.0225
     11  F11       -3.6200    2.3170    1.7420 F       1  UNK1       -0.2015
     12  N12        0.6780   -2.1770   -0.6280 N.am    1  UNK1       -0.2508
     13  O13       -0.8310   -2.1360    1.1770 O.2     1  UNK1       -0.2257
     14  N14        0.6470    2.4470    0.8310 N.am    1  UNK1       -0.2508
     15  O15       -0.8670    2.4410   -0.9710 O.2     1  UNK1       -0.2257
     16  C16        1.7440   -2.9880   -0.1570 C.ar    1  UNK1        0.0365
     17  C17        1.6990    3.2910    0.3850 C.ar    1  UNK1        0.0365
     18  C18        2.9770   -2.8930   -0.8370 C.ar    1  UNK1       -0.0404
     19  C19        1.6210   -3.8950    0.9240 C.ar    1  UNK1       -0.0404
     20  C20        2.9350    3.1920    1.0570 C.ar    1  UNK1       -0.0404
     21  C21        1.5560    4.2320   -0.6640 C.ar    1  UNK1       -0.0404
     22  C22        4.0780   -3.6740   -0.4360 C.ar    1  UNK1       -0.0600
     23  C23        2.7230   -4.6760    1.3230 C.ar    1  UNK1       -0.0600
     24  C24        4.0210    4.0050    0.6790 C.ar    1  UNK1       -0.0600
     25  C25        2.6440    5.0440   -1.0400 C.ar    1  UNK1       -0.0600
     26  C26        3.9520   -4.5650    0.6460 C.ar    1  UNK1       -0.0616
     27  C27        3.8770    4.9300   -0.3710 C.ar    1  UNK1       -0.0616
     28  H28       -3.5900   -1.8570   -1.4440 H       1  UNK1        0.0655
     29  H29       -5.7460   -0.8650   -0.7120 H       1  UNK1        0.0620
     30  H30       -5.7580    1.1070    0.8050 H       1  UNK1        0.0647
     31  H31        0.7970   -1.7460   -1.5330 H       1  UNK1        0.1582
     32  H32        0.7750    1.9890    1.7210 H       1  UNK1        0.1582
     33  H33        3.0860   -2.2140   -1.6700 H       1  UNK1        0.0636
     34  H34        0.6900   -4.0200    1.4540 H       1  UNK1        0.0636
     35  H35        3.0580    2.4870    1.8670 H       1  UNK1        0.0636
     36  H36        0.6210    4.3600   -1.1860 H       1  UNK1        0.0636
     37  H37        5.0190   -3.5910   -0.9600 H       1  UNK1        0.0618
     38  H38        2.6230   -5.3660    2.1490 H       1  UNK1        0.0618
     39  H39        4.9660    3.9180    1.1970 H       1  UNK1        0.0618
     40  H40        2.5300    5.7600   -1.8410 H       1  UNK1        0.0618
     41  H41        4.7950   -5.1650    0.9540 H       1  UNK1        0.0618
     42  H42        4.7100    5.5540   -0.6610 H       1  UNK1        0.0618
@<TRIPOS>BOND
     1     1     2   ar
     2     1     3    1
     3     1     4   ar
     4     2     5    1
     5     2     6   ar
     6     3     7    1
     7     4     8   ar
     8     4    28    1
     9     5     9    1
    10     6    10   ar
    11     6    11    1
    12     7    12   am
    13     7    13    2
    14     8    10   ar
    15     8    29    1
    16     9    14   am
    17     9    15    2
    18    10    30    1
    19    12    16    1
    20    12    31    1
    21    14    17    1
    22    14    32    1
    23    16    18   ar
    24    16    19   ar
    25    17    20   ar
    26    17    21   ar
    27    18    22   ar
    28    18    33    1
    29    19    23   ar
    30    19    34    1
    31    20    24   ar
    32    20    35    1
    33    21    25   ar
    34    21    36    1
    35    22    26   ar
    36    22    37    1
    37    23    26   ar
    38    23    38    1
    39    24    27   ar
    40    24    39    1
    41    25    27   ar
    42    25    40    1
    43    26    41    1
    44    27    42    1
