MODEL 1
REMARK VINA RESULT:    -7.819      0.000      0.000
REMARK INTER + INTRA:         -11.388
REMARK INTER:                 -10.562
REMARK INTRA:                  -0.826
REMARK UNBOUND:                -0.826
REMARK  6 active torsions:
REMARK  status: ('A' for Active; 'I' for Inactive)
REMARK    1  A    between atoms: C1_1  and  O3_3 
REMARK    2  A    between atoms: C2_2  and  O5_5 
REMARK    3  A    between atoms: O3_3  and  C7_7 
REMARK    4  A    between atoms: O5_5  and  C9_9 
REMARK       I    between atoms: C7_7  and  N12_12 
REMARK       I    between atoms: C9_9  and  N14_14 
REMARK    5  A    between atoms: N12_12  and  C16_16 
REMARK    6  A    between atoms: N14_14  and  C17_17 
ROOT
ATOM      1  C1  UNK d   1      -5.436  -7.477  26.591  0.00  0.00     0.118 A 
ATOM      2  C2  UNK d   1      -5.881  -8.536  27.421  0.00  0.00     0.153 A 
ATOM      3  C4  UNK d   1      -6.113  -6.239  26.615  0.00  0.00     0.040 A 
ATOM      4  C6  UNK d   1      -7.031  -8.362  28.220  0.00  0.00     0.153 A 
ATOM      5  C8  UNK d   1      -7.250  -6.066  27.427  0.00  0.00     0.006 A 
ATOM      6  C10 UNK d   1      -7.712  -7.130  28.225  0.00  0.00     0.045 A 
ATOM      7  F11 UNK d   1      -7.482  -9.381  28.992  0.00  0.00    -0.203 F 
ENDROOT
BRANCH   1   8
ATOM      8  O3  UNK d   1      -4.316  -7.610  25.807  0.00  0.00    -0.258 OA
BRANCH   8   9
ATOM      9  C7  UNK d   1      -4.344  -7.205  24.521  0.00  0.00     0.370 C 
ATOM     10  N12 UNK d   1      -3.263  -6.357  24.323  0.00  0.00    -0.302 N 
ATOM     11  H31 UNK d   1      -2.658  -6.251  25.124  0.00  0.00     0.171 HD
ATOM     12  O13 UNK d   1      -5.185  -7.560  23.693  0.00  0.00    -0.238 OA
BRANCH  10  13
ATOM     13  C16 UNK d   1      -2.862  -5.712  23.124  0.00  0.00     0.036 A 
ATOM     14  C18 UNK d   1      -2.790  -4.302  23.142  0.00  0.00     0.029 A 
ATOM     15  C22 UNK d   1      -2.410  -3.590  21.988  0.00  0.00     0.002 A 
ATOM     16  C26 UNK d   1      -2.108  -4.283  20.801  0.00  0.00     0.000 A 
ATOM     17  C23 UNK d   1      -2.189  -5.688  20.769  0.00  0.00     0.002 A 
ATOM     18  C19 UNK d   1      -2.567  -6.402  21.922  0.00  0.00     0.029 A 
ENDBRANCH  10  13
ENDBRANCH   8   9
ENDBRANCH   1   8
BRANCH   2  19
ATOM     19  O5  UNK d   1      -5.244  -9.753  27.413  0.00  0.00    -0.255 OA
BRANCH  19  20
ATOM     20  C9  UNK d   1      -4.351 -10.045  28.381  0.00  0.00     0.370 C 
ATOM     21  N14 UNK d   1      -4.270 -11.427  28.476  0.00  0.00    -0.302 N 
ATOM     22  H32 UNK d   1      -4.826 -11.930  27.801  0.00  0.00     0.171 HD
ATOM     23  O15 UNK d   1      -3.723  -9.207  29.031  0.00  0.00    -0.238 OA
BRANCH  21  24
ATOM     24  C17 UNK d   1      -3.440 -12.203  29.330  0.00  0.00     0.036 A 
ATOM     25  C20 UNK d   1      -3.968 -12.568  30.585  0.00  0.00     0.029 A 
ATOM     26  C24 UNK d   1      -3.200 -13.326  31.490  0.00  0.00     0.002 A 
ATOM     27  C27 UNK d   1      -1.893 -13.719  31.148  0.00  0.00     0.000 A 
ATOM     28  C25 UNK d   1      -1.353 -13.349  29.902  0.00  0.00     0.002 A 
ATOM     29  C21 UNK d   1      -2.120 -12.591  28.995  0.00  0.00     0.029 A 
ENDBRANCH  21  24
ENDBRANCH  19  20
ENDBRANCH   2  19
TORSDOF 6
ENDMDL
MODEL 2
REMARK VINA RESULT:    -7.701      2.559      5.482
REMARK INTER + INTRA:         -11.228
REMARK INTER:                  -9.773
REMARK INTRA:                  -1.455
REMARK UNBOUND:                -0.826
REMARK  6 active torsions:
REMARK  status: ('A' for Active; 'I' for Inactive)
REMARK    1  A    between atoms: C1_1  and  O3_3 
REMARK    2  A    between atoms: C2_2  and  O5_5 
REMARK    3  A    between atoms: O3_3  and  C7_7 
REMARK    4  A    between atoms: O5_5  and  C9_9 
REMARK       I    between atoms: C7_7  and  N12_12 
REMARK       I    between atoms: C9_9  and  N14_14 
REMARK    5  A    between atoms: N12_12  and  C16_16 
REMARK    6  A    between atoms: N14_14  and  C17_17 
ROOT
ATOM      1  C1  UNK d   1      -2.362 -11.922  26.285  0.00  0.00     0.118 A 
ATOM      2  C2  UNK d   1      -2.598 -12.249  27.644  0.00  0.00     0.153 A 
ATOM      3  C4  UNK d   1      -1.038 -11.880  25.796  0.00  0.00     0.040 A 
ATOM      4  C6  UNK d   1      -1.506 -12.472  28.509  0.00  0.00     0.153 A 
ATOM      5  C8  UNK d   1       0.046 -12.121  26.661  0.00  0.00     0.006 A 
ATOM      6  C10 UNK d   1      -0.188 -12.411  28.019  0.00  0.00     0.045 A 
ATOM      7  F11 UNK d   1      -1.723 -12.753  29.817  0.00  0.00    -0.203 F 
ENDROOT
BRANCH   1   8
ATOM      8  O3  UNK d   1      -3.402 -11.706  25.414  0.00  0.00    -0.258 OA
BRANCH   8   9
ATOM      9  C7  UNK d   1      -3.257 -10.834  24.397  0.00  0.00     0.370 C 
ATOM     10  N12 UNK d   1      -3.489  -9.560  24.898  0.00  0.00    -0.302 N 
ATOM     11  H31 UNK d   1      -3.660  -9.522  25.892  0.00  0.00     0.171 HD
ATOM     12  O13 UNK d   1      -2.953 -11.146  23.244  0.00  0.00    -0.238 OA
BRANCH  10  13
ATOM     13  C16 UNK d   1      -3.417  -8.320  24.210  0.00  0.00     0.036 A 
ATOM     14  C18 UNK d   1      -4.627  -7.783  23.720  0.00  0.00     0.029 A 
ATOM     15  C22 UNK d   1      -4.635  -6.562  23.017  0.00  0.00     0.002 A 
ATOM     16  C26 UNK d   1      -3.430  -5.871  22.792  0.00  0.00     0.000 A 
ATOM     17  C23 UNK d   1      -2.217  -6.404  23.267  0.00  0.00     0.002 A 
ATOM     18  C19 UNK d   1      -2.207  -7.625  23.970  0.00  0.00     0.029 A 
ENDBRANCH  10  13
ENDBRANCH   8   9
ENDBRANCH   1   8
BRANCH   2  19
ATOM     19  O5  UNK d   1      -3.876 -12.291  28.147  0.00  0.00    -0.255 OA
BRANCH  19  20
ATOM     20  C9  UNK d   1      -4.373 -11.219  28.796  0.00  0.00     0.370 C 
ATOM     21  N14 UNK d   1      -4.876 -10.345  27.842  0.00  0.00    -0.302 N 
ATOM     22  H32 UNK d   1      -4.826 -10.683  26.893  0.00  0.00     0.171 HD
ATOM     23  O15 UNK d   1      -4.380 -11.083  30.021  0.00  0.00    -0.238 OA
BRANCH  21  24
ATOM     24  C17 UNK d   1      -5.527  -9.099  28.048  0.00  0.00     0.036 A 
ATOM     25  C20 UNK d   1      -4.742  -7.933  27.928  0.00  0.00     0.029 A 
ATOM     26  C24 UNK d   1      -5.315  -6.663  28.129  0.00  0.00     0.002 A 
ATOM     27  C27 UNK d   1      -6.677  -6.548  28.460  0.00  0.00     0.000 A 
ATOM     28  C25 UNK d   1      -7.466  -7.706  28.593  0.00  0.00     0.002 A 
ATOM     29  C21 UNK d   1      -6.895  -8.979  28.392  0.00  0.00     0.029 A 
ENDBRANCH  21  24
ENDBRANCH  19  20
ENDBRANCH   2  19
TORSDOF 6
ENDMDL
MODEL 3
REMARK VINA RESULT:    -7.666      1.796      2.463
REMARK INTER + INTRA:         -11.182
REMARK INTER:                 -10.227
REMARK INTRA:                  -0.954
REMARK UNBOUND:                -0.826
REMARK  6 active torsions:
REMARK  status: ('A' for Active; 'I' for Inactive)
REMARK    1  A    between atoms: C1_1  and  O3_3 
REMARK    2  A    between atoms: C2_2  and  O5_5 
REMARK    3  A    between atoms: O3_3  and  C7_7 
REMARK    4  A    between atoms: O5_5  and  C9_9 
REMARK       I    between atoms: C7_7  and  N12_12 
REMARK       I    between atoms: C9_9  and  N14_14 
REMARK    5  A    between atoms: N12_12  and  C16_16 
REMARK    6  A    between atoms: N14_14  and  C17_17 
ROOT
ATOM      1  C1  UNK d   1      -5.498  -7.570  26.833  0.00  0.00     0.118 A 
ATOM      2  C2  UNK d   1      -6.109  -8.652  27.516  0.00  0.00     0.153 A 
ATOM      3  C4  UNK d   1      -5.862  -6.245  27.155  0.00  0.00     0.040 A 
ATOM      4  C6  UNK d   1      -7.117  -8.396  28.470  0.00  0.00     0.153 A 
ATOM      5  C8  UNK d   1      -6.857  -5.996  28.120  0.00  0.00     0.006 A 
ATOM      6  C10 UNK d   1      -7.487  -7.072  28.773  0.00  0.00     0.045 A 
ATOM      7  F11 UNK d   1      -7.728  -9.426  29.104  0.00  0.00    -0.203 F 
ENDROOT
BRANCH   1   8
ATOM      8  O3  UNK d   1      -4.509  -7.783  25.904  0.00  0.00    -0.258 OA
BRANCH   8   9
ATOM      9  C7  UNK d   1      -4.598  -7.214  24.685  0.00  0.00     0.370 C 
ATOM     10  N12 UNK d   1      -3.401  -6.555  24.439  0.00  0.00    -0.302 N 
ATOM     11  H31 UNK d   1      -2.703  -6.666  25.160  0.00  0.00     0.171 HD
ATOM     12  O13 UNK d   1      -5.577  -7.300  23.941  0.00  0.00    -0.238 OA
BRANCH  10  13
ATOM     13  C16 UNK d   1      -3.016  -5.840  23.275  0.00  0.00     0.036 A 
ATOM     14  C18 UNK d   1      -2.834  -4.446  23.403  0.00  0.00     0.029 A 
ATOM     15  C22 UNK d   1      -2.463  -3.667  22.291  0.00  0.00     0.002 A 
ATOM     16  C26 UNK d   1      -2.278  -4.275  21.035  0.00  0.00     0.000 A 
ATOM     17  C23 UNK d   1      -2.468  -5.663  20.894  0.00  0.00     0.002 A 
ATOM     18  C19 UNK d   1      -2.839  -6.444  22.006  0.00  0.00     0.029 A 
ENDBRANCH  10  13
ENDBRANCH   8   9
ENDBRANCH   1   8
BRANCH   2  19
ATOM     19  O5  UNK d   1      -5.777  -9.951  27.218  0.00  0.00    -0.255 OA
BRANCH  19  20
ATOM     20  C9  UNK d   1      -4.561 -10.424  27.558  0.00  0.00     0.370 C 
ATOM     21  N14 UNK d   1      -3.882 -10.723  26.385  0.00  0.00    -0.302 N 
ATOM     22  H32 UNK d   1      -4.381 -10.492  25.539  0.00  0.00     0.171 HD
ATOM     23  O15 UNK d   1      -4.153 -10.537  28.716  0.00  0.00    -0.238 OA
BRANCH  21  24
ATOM     24  C17 UNK d   1      -2.558 -11.216  26.238  0.00  0.00     0.036 A 
ATOM     25  C20 UNK d   1      -1.784 -10.682  25.186  0.00  0.00     0.029 A 
ATOM     26  C24 UNK d   1      -0.467 -11.129  24.970  0.00  0.00     0.002 A 
ATOM     27  C27 UNK d   1       0.086 -12.121  25.800  0.00  0.00     0.000 A 
ATOM     28  C25 UNK d   1      -0.683 -12.668  26.845  0.00  0.00     0.002 A 
ATOM     29  C21 UNK d   1      -2.001 -12.222  27.064  0.00  0.00     0.029 A 
ENDBRANCH  21  24
ENDBRANCH  19  20
ENDBRANCH   2  19
TORSDOF 6
ENDMDL
MODEL 4
REMARK VINA RESULT:    -7.598      2.545      7.727
REMARK INTER + INTRA:         -11.089
REMARK INTER:                  -9.688
REMARK INTRA:                  -1.401
REMARK UNBOUND:                -0.826
REMARK  6 active torsions:
REMARK  status: ('A' for Active; 'I' for Inactive)
REMARK    1  A    between atoms: C1_1  and  O3_3 
REMARK    2  A    between atoms: C2_2  and  O5_5 
REMARK    3  A    between atoms: O3_3  and  C7_7 
REMARK    4  A    between atoms: O5_5  and  C9_9 
REMARK       I    between atoms: C7_7  and  N12_12 
REMARK       I    between atoms: C9_9  and  N14_14 
REMARK    5  A    between atoms: N12_12  and  C16_16 
REMARK    6  A    between atoms: N14_14  and  C17_17 
ROOT
ATOM      1  C1  UNK d   1      -3.104 -11.636  26.650  0.00  0.00     0.118 A 
ATOM      2  C2  UNK d   1      -2.417 -10.900  25.651  0.00  0.00     0.153 A 
ATOM      3  C4  UNK d   1      -2.391 -12.542  27.464  0.00  0.00     0.040 A 
ATOM      4  C6  UNK d   1      -1.040 -11.123  25.442  0.00  0.00     0.153 A 
ATOM      5  C8  UNK d   1      -1.013 -12.747  27.262  0.00  0.00     0.006 A 
ATOM      6  C10 UNK d   1      -0.340 -12.041  26.247  0.00  0.00     0.045 A 
ATOM      7  F11 UNK d   1      -0.383 -10.447  24.468  0.00  0.00    -0.203 F 
ENDROOT
BRANCH   1   8
ATOM      8  O3  UNK d   1      -4.443 -11.438  26.884  0.00  0.00    -0.258 OA
BRANCH   8   9
ATOM      9  C7  UNK d   1      -4.842 -10.449  27.709  0.00  0.00     0.370 C 
ATOM     10  N12 UNK d   1      -5.513  -9.506  26.943  0.00  0.00    -0.302 N 
ATOM     11  H31 UNK d   1      -5.619  -9.751  25.970  0.00  0.00     0.171 HD
ATOM     12  O13 UNK d   1      -4.644 -10.429  28.925  0.00  0.00    -0.238 OA
BRANCH  10  13
ATOM     13  C16 UNK d   1      -6.140  -8.308  27.376  0.00  0.00     0.036 A 
ATOM     14  C18 UNK d   1      -5.858  -7.132  26.649  0.00  0.00     0.029 A 
ATOM     15  C22 UNK d   1      -6.433  -5.903  27.025  0.00  0.00     0.002 A 
ATOM     16  C26 UNK d   1      -7.290  -5.838  28.139  0.00  0.00     0.000 A 
ATOM     17  C23 UNK d   1      -7.568  -7.003  28.878  0.00  0.00     0.002 A 
ATOM     18  C19 UNK d   1      -6.994  -8.234  28.504  0.00  0.00     0.029 A 
ENDBRANCH  10  13
ENDBRANCH   8   9
ENDBRANCH   1   8
BRANCH   2  19
ATOM     19  O5  UNK d   1      -3.088 -10.017  24.841  0.00  0.00    -0.255 OA
BRANCH  19  20
ATOM     20  C9  UNK d   1      -2.896  -8.691  24.997  0.00  0.00     0.370 C 
ATOM     21  N14 UNK d   1      -3.069  -8.092  23.756  0.00  0.00    -0.302 N 
ATOM     22  H32 UNK d   1      -3.345  -8.722  23.018  0.00  0.00     0.171 HD
ATOM     23  O15 UNK d   1      -2.635  -8.142  26.069  0.00  0.00    -0.238 OA
BRANCH  21  24
ATOM     24  C17 UNK d   1      -3.000  -6.711  23.430  0.00  0.00     0.036 A 
ATOM     25  C20 UNK d   1      -2.149  -6.340  22.368  0.00  0.00     0.029 A 
ATOM     26  C24 UNK d   1      -2.019  -4.988  21.995  0.00  0.00     0.002 A 
ATOM     27  C27 UNK d   1      -2.736  -3.995  22.686  0.00  0.00     0.000 A 
ATOM     28  C25 UNK d   1      -3.579  -4.354  23.755  0.00  0.00     0.002 A 
ATOM     29  C21 UNK d   1      -3.710  -5.705  24.130  0.00  0.00     0.029 A 
ENDBRANCH  21  24
ENDBRANCH  19  20
ENDBRANCH   2  19
TORSDOF 6
ENDMDL
MODEL 5
REMARK VINA RESULT:    -7.569      3.225      5.873
REMARK INTER + INTRA:         -11.050
REMARK INTER:                  -9.878
REMARK INTRA:                  -1.172
REMARK UNBOUND:                -0.826
REMARK  6 active torsions:
REMARK  status: ('A' for Active; 'I' for Inactive)
REMARK    1  A    between atoms: C1_1  and  O3_3 
REMARK    2  A    between atoms: C2_2  and  O5_5 
REMARK    3  A    between atoms: O3_3  and  C7_7 
REMARK    4  A    between atoms: O5_5  and  C9_9 
REMARK       I    between atoms: C7_7  and  N12_12 
REMARK       I    between atoms: C9_9  and  N14_14 
REMARK    5  A    between atoms: N12_12  and  C16_16 
REMARK    6  A    between atoms: N14_14  and  C17_17 
ROOT
ATOM      1  C1  UNK d   1      -3.702  -5.673  23.672  0.00  0.00     0.118 A 
ATOM      2  C2  UNK d   1      -2.410  -6.257  23.683  0.00  0.00     0.153 A 
ATOM      3  C4  UNK d   1      -3.835  -4.270  23.746  0.00  0.00     0.040 A 
ATOM      4  C6  UNK d   1      -1.272  -5.434  23.825  0.00  0.00     0.153 A 
ATOM      5  C8  UNK d   1      -2.695  -3.453  23.871  0.00  0.00     0.006 A 
ATOM      6  C10 UNK d   1      -1.415  -4.037  23.916  0.00  0.00     0.045 A 
ATOM      7  F11 UNK d   1      -0.036  -5.987  23.868  0.00  0.00    -0.203 F 
ENDROOT
BRANCH   1   8
ATOM      8  O3  UNK d   1      -4.829  -6.445  23.527  0.00  0.00    -0.258 OA
BRANCH   8   9
ATOM      9  C7  UNK d   1      -5.840  -6.329  24.412  0.00  0.00     0.370 C 
ATOM     10  N12 UNK d   1      -5.326  -6.582  25.676  0.00  0.00    -0.302 N 
ATOM     11  H31 UNK d   1      -4.330  -6.744  25.701  0.00  0.00     0.171 HD
ATOM     12  O13 UNK d   1      -6.999  -6.031  24.116  0.00  0.00    -0.238 OA
BRANCH  10  13
ATOM     13  C16 UNK d   1      -6.003  -6.545  26.923  0.00  0.00     0.036 A 
ATOM     14  C18 UNK d   1      -5.208  -6.496  28.088  0.00  0.00     0.029 A 
ATOM     15  C22 UNK d   1      -5.806  -6.468  29.363  0.00  0.00     0.002 A 
ATOM     16  C26 UNK d   1      -7.208  -6.498  29.483  0.00  0.00     0.000 A 
ATOM     17  C23 UNK d   1      -8.009  -6.559  28.327  0.00  0.00     0.002 A 
ATOM     18  C19 UNK d   1      -7.413  -6.586  27.052  0.00  0.00     0.029 A 
ENDBRANCH  10  13
ENDBRANCH   8   9
ENDBRANCH   1   8
BRANCH   2  19
ATOM     19  O5  UNK d   1      -2.252  -7.620  23.618  0.00  0.00    -0.255 OA
BRANCH  19  20
ATOM     20  C9  UNK d   1      -2.205  -8.341  24.757  0.00  0.00     0.370 C 
ATOM     21  N14 UNK d   1      -3.342  -9.136  24.799  0.00  0.00    -0.302 N 
ATOM     22  H32 UNK d   1      -3.934  -9.068  23.985  0.00  0.00     0.171 HD
ATOM     23  O15 UNK d   1      -1.288  -8.291  25.580  0.00  0.00    -0.238 OA
BRANCH  21  24
ATOM     24  C17 UNK d   1      -3.714 -10.086  25.787  0.00  0.00     0.036 A 
ATOM     25  C20 UNK d   1      -4.759  -9.729  26.665  0.00  0.00     0.029 A 
ATOM     26  C24 UNK d   1      -5.175 -10.614  27.678  0.00  0.00     0.002 A 
ATOM     27  C27 UNK d   1      -4.543 -11.862  27.826  0.00  0.00     0.000 A 
ATOM     28  C25 UNK d   1      -3.491 -12.222  26.963  0.00  0.00     0.002 A 
ATOM     29  C21 UNK d   1      -3.073 -11.339  25.949  0.00  0.00     0.029 A 
ENDBRANCH  21  24
ENDBRANCH  19  20
ENDBRANCH   2  19
TORSDOF 6
ENDMDL
MODEL 6
REMARK VINA RESULT:    -7.534      3.120      5.974
REMARK INTER + INTRA:         -11.003
REMARK INTER:                  -9.752
REMARK INTRA:                  -1.251
REMARK UNBOUND:                -0.826
REMARK  6 active torsions:
REMARK  status: ('A' for Active; 'I' for Inactive)
REMARK    1  A    between atoms: C1_1  and  O3_3 
REMARK    2  A    between atoms: C2_2  and  O5_5 
REMARK    3  A    between atoms: O3_3  and  C7_7 
REMARK    4  A    between atoms: O5_5  and  C9_9 
REMARK       I    between atoms: C7_7  and  N12_12 
REMARK       I    between atoms: C9_9  and  N14_14 
REMARK    5  A    between atoms: N12_12  and  C16_16 
REMARK    6  A    between atoms: N14_14  and  C17_17 
ROOT
ATOM      1  C1  UNK d   1      -2.092  -5.516  24.821  0.00  0.00     0.118 A 
ATOM      2  C2  UNK d   1      -2.108  -6.339  23.666  0.00  0.00     0.153 A 
ATOM      3  C4  UNK d   1      -2.409  -4.146  24.706  0.00  0.00     0.040 A 
ATOM      4  C6  UNK d   1      -2.383  -5.769  22.405  0.00  0.00     0.153 A 
ATOM      5  C8  UNK d   1      -2.699  -3.586  23.447  0.00  0.00     0.006 A 
ATOM      6  C10 UNK d   1      -2.681  -4.398  22.297  0.00  0.00     0.045 A 
ATOM      7  F11 UNK d   1      -2.369  -6.543  21.293  0.00  0.00    -0.203 F 
ENDROOT
BRANCH   1   8
ATOM      8  O3  UNK d   1      -1.835  -6.041  26.064  0.00  0.00    -0.258 OA
BRANCH   8   9
ATOM      9  C7  UNK d   1      -2.744  -5.905  27.051  0.00  0.00     0.370 C 
ATOM     10  N12 UNK d   1      -3.971  -6.325  26.555  0.00  0.00    -0.302 N 
ATOM     11  H31 UNK d   1      -3.943  -6.687  25.613  0.00  0.00     0.171 HD
ATOM     12  O13 UNK d   1      -2.491  -5.496  28.185  0.00  0.00    -0.238 OA
BRANCH  10  13
ATOM     13  C16 UNK d   1      -5.215  -6.396  27.235  0.00  0.00     0.036 A 
ATOM     14  C18 UNK d   1      -6.383  -6.211  26.465  0.00  0.00     0.029 A 
ATOM     15  C22 UNK d   1      -7.654  -6.257  27.070  0.00  0.00     0.002 A 
ATOM     16  C26 UNK d   1      -7.767  -6.479  28.455  0.00  0.00     0.000 A 
ATOM     17  C23 UNK d   1      -6.607  -6.653  29.233  0.00  0.00     0.002 A 
ATOM     18  C19 UNK d   1      -5.335  -6.609  28.630  0.00  0.00     0.029 A 
ENDBRANCH  10  13
ENDBRANCH   8   9
ENDBRANCH   1   8
BRANCH   2  19
ATOM     19  O5  UNK d   1      -1.798  -7.675  23.749  0.00  0.00    -0.255 OA
BRANCH  19  20
ATOM     20  C9  UNK d   1      -2.758  -8.563  24.078  0.00  0.00     0.370 C 
ATOM     21  N14 UNK d   1      -2.406  -9.130  25.296  0.00  0.00    -0.302 N 
ATOM     22  H32 UNK d   1      -1.568  -8.752  25.711  0.00  0.00     0.171 HD
ATOM     23  O15 UNK d   1      -3.764  -8.790  23.404  0.00  0.00    -0.238 OA
BRANCH  21  24
ATOM     24  C17 UNK d   1      -3.124 -10.091  26.057  0.00  0.00     0.036 A 
ATOM     25  C20 UNK d   1      -4.345  -9.680  26.631  0.00  0.00     0.029 A 
ATOM     26  C24 UNK d   1      -5.106 -10.574  27.409  0.00  0.00     0.002 A 
ATOM     27  C27 UNK d   1      -4.648 -11.886  27.625  0.00  0.00     0.000 A 
ATOM     28  C25 UNK d   1      -3.425 -12.302  27.066  0.00  0.00     0.002 A 
ATOM     29  C21 UNK d   1      -2.662 -11.410  26.288  0.00  0.00     0.029 A 
ENDBRANCH  21  24
ENDBRANCH  19  20
ENDBRANCH   2  19
TORSDOF 6
ENDMDL
MODEL 7
REMARK VINA RESULT:    -7.459      2.382      5.389
REMARK INTER + INTRA:         -10.901
REMARK INTER:                  -9.681
REMARK INTRA:                  -1.221
REMARK UNBOUND:                -0.826
REMARK  6 active torsions:
REMARK  status: ('A' for Active; 'I' for Inactive)
REMARK    1  A    between atoms: C1_1  and  O3_3 
REMARK    2  A    between atoms: C2_2  and  O5_5 
REMARK    3  A    between atoms: O3_3  and  C7_7 
REMARK    4  A    between atoms: O5_5  and  C9_9 
REMARK       I    between atoms: C7_7  and  N12_12 
REMARK       I    between atoms: C9_9  and  N14_14 
REMARK    5  A    between atoms: N12_12  and  C16_16 
REMARK    6  A    between atoms: N14_14  and  C17_17 
ROOT
ATOM      1  C1  UNK d   1      -2.386 -10.582  25.227  0.00  0.00     0.118 A 
ATOM      2  C2  UNK d   1      -2.889 -11.365  26.296  0.00  0.00     0.153 A 
ATOM      3  C4  UNK d   1      -1.041 -10.730  24.824  0.00  0.00     0.040 A 
ATOM      4  C6  UNK d   1      -2.027 -12.243  26.985  0.00  0.00     0.153 A 
ATOM      5  C8  UNK d   1      -0.190 -11.621  25.505  0.00  0.00     0.006 A 
ATOM      6  C10 UNK d   1      -0.682 -12.373  26.589  0.00  0.00     0.045 A 
ATOM      7  F11 UNK d   1      -2.492 -12.972  28.029  0.00  0.00    -0.203 F 
ENDROOT
BRANCH   1   8
ATOM      8  O3  UNK d   1      -3.201  -9.722  24.530  0.00  0.00    -0.258 OA
BRANCH   8   9
ATOM      9  C7  UNK d   1      -2.986  -8.393  24.596  0.00  0.00     0.370 C 
ATOM     10  N12 UNK d   1      -3.019  -7.896  23.300  0.00  0.00    -0.302 N 
ATOM     11  H31 UNK d   1      -3.240  -8.580  22.591  0.00  0.00     0.171 HD
ATOM     12  O13 UNK d   1      -2.815  -7.761  25.640  0.00  0.00    -0.238 OA
BRANCH  10  13
ATOM     13  C16 UNK d   1      -2.877  -6.550  22.872  0.00  0.00     0.036 A 
ATOM     14  C18 UNK d   1      -2.457  -6.336  21.542  0.00  0.00     0.029 A 
ATOM     15  C22 UNK d   1      -2.283  -5.029  21.047  0.00  0.00     0.002 A 
ATOM     16  C26 UNK d   1      -2.521  -3.922  21.884  0.00  0.00     0.000 A 
ATOM     17  C23 UNK d   1      -2.929  -4.125  23.215  0.00  0.00     0.002 A 
ATOM     18  C19 UNK d   1      -3.104  -5.432  23.711  0.00  0.00     0.029 A 
ENDBRANCH  10  13
ENDBRANCH   8   9
ENDBRANCH   1   8
BRANCH   2  19
ATOM     19  O5  UNK d   1      -4.192 -11.236  26.712  0.00  0.00    -0.255 OA
BRANCH  19  20
ATOM     20  C9  UNK d   1      -4.538 -10.208  27.513  0.00  0.00     0.370 C 
ATOM     21  N14 UNK d   1      -5.461  -9.431  26.827  0.00  0.00    -0.302 N 
ATOM     22  H32 UNK d   1      -5.727  -9.792  25.923  0.00  0.00     0.171 HD
ATOM     23  O15 UNK d   1      -4.105 -10.033  28.654  0.00  0.00    -0.238 OA
BRANCH  21  24
ATOM     24  C17 UNK d   1      -6.134  -8.264  27.276  0.00  0.00     0.036 A 
ATOM     25  C20 UNK d   1      -5.852  -7.056  26.603  0.00  0.00     0.029 A 
ATOM     26  C24 UNK d   1      -6.472  -5.856  27.000  0.00  0.00     0.002 A 
ATOM     27  C27 UNK d   1      -7.375  -5.852  28.079  0.00  0.00     0.000 A 
ATOM     28  C25 UNK d   1      -7.654  -7.049  28.763  0.00  0.00     0.002 A 
ATOM     29  C21 UNK d   1      -7.036  -8.252  28.369  0.00  0.00     0.029 A 
ENDBRANCH  21  24
ENDBRANCH  19  20
ENDBRANCH   2  19
TORSDOF 6
ENDMDL
MODEL 8
REMARK VINA RESULT:    -7.452      1.288      8.324
REMARK INTER + INTRA:         -10.893
REMARK INTER:                  -9.894
REMARK INTRA:                  -0.998
REMARK UNBOUND:                -0.826
REMARK  6 active torsions:
REMARK  status: ('A' for Active; 'I' for Inactive)
REMARK    1  A    between atoms: C1_1  and  O3_3 
REMARK    2  A    between atoms: C2_2  and  O5_5 
REMARK    3  A    between atoms: O3_3  and  C7_7 
REMARK    4  A    between atoms: O5_5  and  C9_9 
REMARK       I    between atoms: C7_7  and  N12_12 
REMARK       I    between atoms: C9_9  and  N14_14 
REMARK    5  A    between atoms: N12_12  and  C16_16 
REMARK    6  A    between atoms: N14_14  and  C17_17 
ROOT
ATOM      1  C1  UNK d   1      -5.823  -8.304  27.171  0.00  0.00     0.118 A 
ATOM      2  C2  UNK d   1      -5.896  -7.358  26.118  0.00  0.00     0.153 A 
ATOM      3  C4  UNK d   1      -6.465  -8.034  28.399  0.00  0.00     0.040 A 
ATOM      4  C6  UNK d   1      -6.560  -6.130  26.326  0.00  0.00     0.153 A 
ATOM      5  C8  UNK d   1      -7.141  -6.815  28.594  0.00  0.00     0.006 A 
ATOM      6  C10 UNK d   1      -7.184  -5.861  27.559  0.00  0.00     0.045 A 
ATOM      7  F11 UNK d   1      -6.607  -5.208  25.334  0.00  0.00    -0.203 F 
ENDROOT
BRANCH   1   8
ATOM      8  O3  UNK d   1      -5.190  -9.511  27.000  0.00  0.00    -0.258 OA
BRANCH   8   9
ATOM      9  C7  UNK d   1      -4.146  -9.840  27.787  0.00  0.00     0.370 C 
ATOM     10  N12 UNK d   1      -4.375 -11.116  28.281  0.00  0.00    -0.302 N 
ATOM     11  H31 UNK d   1      -5.213 -11.559  27.933  0.00  0.00     0.171 HD
ATOM     12  O13 UNK d   1      -3.169  -9.117  27.992  0.00  0.00    -0.238 OA
BRANCH  10  13
ATOM     13  C16 UNK d   1      -3.539 -11.895  29.124  0.00  0.00     0.036 A 
ATOM     14  C18 UNK d   1      -4.053 -12.256  30.388  0.00  0.00     0.029 A 
ATOM     15  C22 UNK d   1      -3.279 -13.017  31.285  0.00  0.00     0.002 A 
ATOM     16  C26 UNK d   1      -1.979 -13.418  30.927  0.00  0.00     0.000 A 
ATOM     17  C23 UNK d   1      -1.452 -13.053  29.674  0.00  0.00     0.002 A 
ATOM     18  C19 UNK d   1      -2.225 -12.292  28.775  0.00  0.00     0.029 A 
ENDBRANCH  10  13
ENDBRANCH   8   9
ENDBRANCH   1   8
BRANCH   2  19
ATOM     19  O5  UNK d   1      -5.275  -7.593  24.915  0.00  0.00    -0.255 OA
BRANCH  19  20
ATOM     20  C9  UNK d   1      -4.120  -6.960  24.626  0.00  0.00     0.370 C 
ATOM     21  N14 UNK d   1      -4.307  -6.264  23.440  0.00  0.00    -0.302 N 
ATOM     22  H32 UNK d   1      -5.242  -6.316  23.063  0.00  0.00     0.171 HD
ATOM     23  O15 UNK d   1      -3.105  -7.000  25.325  0.00  0.00    -0.238 OA
BRANCH  21  24
ATOM     24  C17 UNK d   1      -3.385  -5.425  22.758  0.00  0.00     0.036 A 
ATOM     25  C20 UNK d   1      -2.854  -5.903  21.542  0.00  0.00     0.029 A 
ATOM     26  C24 UNK d   1      -1.926  -5.133  20.816  0.00  0.00     0.002 A 
ATOM     27  C27 UNK d   1      -1.515  -3.879  21.304  0.00  0.00     0.000 A 
ATOM     28  C25 UNK d   1      -2.030  -3.399  22.522  0.00  0.00     0.002 A 
ATOM     29  C21 UNK d   1      -2.959  -4.167  23.251  0.00  0.00     0.029 A 
ENDBRANCH  21  24
ENDBRANCH  19  20
ENDBRANCH   2  19
TORSDOF 6
ENDMDL
MODEL 9
REMARK VINA RESULT:    -7.421      3.074      7.039
REMARK INTER + INTRA:         -10.850
REMARK INTER:                  -9.666
REMARK INTRA:                  -1.184
REMARK UNBOUND:                -0.826
REMARK  6 active torsions:
REMARK  status: ('A' for Active; 'I' for Inactive)
REMARK    1  A    between atoms: C1_1  and  O3_3 
REMARK    2  A    between atoms: C2_2  and  O5_5 
REMARK    3  A    between atoms: O3_3  and  C7_7 
REMARK    4  A    between atoms: O5_5  and  C9_9 
REMARK       I    between atoms: C7_7  and  N12_12 
REMARK       I    between atoms: C9_9  and  N14_14 
REMARK    5  A    between atoms: N12_12  and  C16_16 
REMARK    6  A    between atoms: N14_14  and  C17_17 
ROOT
ATOM      1  C1  UNK d   1      -1.924  -6.365  23.798  0.00  0.00     0.118 A 
ATOM      2  C2  UNK d   1      -2.996  -5.448  23.648  0.00  0.00     0.153 A 
ATOM      3  C4  UNK d   1      -0.649  -5.894  24.177  0.00  0.00     0.040 A 
ATOM      4  C6  UNK d   1      -2.763  -4.068  23.822  0.00  0.00     0.153 A 
ATOM      5  C8  UNK d   1      -0.428  -4.516  24.367  0.00  0.00     0.006 A 
ATOM      6  C10 UNK d   1      -1.484  -3.604  24.183  0.00  0.00     0.045 A 
ATOM      7  F11 UNK d   1      -3.775  -3.182  23.649  0.00  0.00    -0.203 F 
ENDROOT
BRANCH   1   8
ATOM      8  O3  UNK d   1      -2.118  -7.716  23.643  0.00  0.00    -0.258 OA
BRANCH   8   9
ATOM      9  C7  UNK d   1      -2.032  -8.534  24.711  0.00  0.00     0.370 C 
ATOM     10  N12 UNK d   1      -3.279  -9.114  24.900  0.00  0.00    -0.302 N 
ATOM     11  H31 UNK d   1      -3.968  -8.869  24.204  0.00  0.00     0.171 HD
ATOM     12  O13 UNK d   1      -1.006  -8.723  25.368  0.00  0.00    -0.238 OA
BRANCH  10  13
ATOM     13  C16 UNK d   1      -3.665 -10.067  25.879  0.00  0.00     0.036 A 
ATOM     14  C18 UNK d   1      -4.705  -9.703  26.760  0.00  0.00     0.029 A 
ATOM     15  C22 UNK d   1      -5.136 -10.591  27.765  0.00  0.00     0.002 A 
ATOM     16  C26 UNK d   1      -4.522 -11.850  27.902  0.00  0.00     0.000 A 
ATOM     17  C23 UNK d   1      -3.475 -12.217  27.036  0.00  0.00     0.002 A 
ATOM     18  C19 UNK d   1      -3.044 -11.331  26.030  0.00  0.00     0.029 A 
ENDBRANCH  10  13
ENDBRANCH   8   9
ENDBRANCH   1   8
BRANCH   2  19
ATOM     19  O5  UNK d   1      -4.245  -5.880  23.274  0.00  0.00    -0.255 OA
BRANCH  19  20
ATOM     20  C9  UNK d   1      -5.000  -6.576  24.148  0.00  0.00     0.370 C 
ATOM     21  N14 UNK d   1      -5.092  -5.828  25.314  0.00  0.00    -0.302 N 
ATOM     22  H32 UNK d   1      -4.644  -4.925  25.271  0.00  0.00     0.171 HD
ATOM     23  O15 UNK d   1      -5.516  -7.671  23.912  0.00  0.00    -0.238 OA
BRANCH  21  24
ATOM     24  C17 UNK d   1      -5.809  -6.135  26.501  0.00  0.00     0.036 A 
ATOM     25  C20 UNK d   1      -5.054  -6.365  27.670  0.00  0.00     0.029 A 
ATOM     26  C24 UNK d   1      -5.694  -6.687  28.882  0.00  0.00     0.002 A 
ATOM     27  C27 UNK d   1      -7.096  -6.788  28.934  0.00  0.00     0.000 A 
ATOM     28  C25 UNK d   1      -7.857  -6.571  27.770  0.00  0.00     0.002 A 
ATOM     29  C21 UNK d   1      -7.220  -6.249  26.556  0.00  0.00     0.029 A 
ENDBRANCH  21  24
ENDBRANCH  19  20
ENDBRANCH   2  19
TORSDOF 6
ENDMDL
MODEL 10
REMARK VINA RESULT:    -7.393      3.314      6.985
REMARK INTER + INTRA:         -10.812
REMARK INTER:                  -9.980
REMARK INTRA:                  -0.832
REMARK UNBOUND:                -0.826
REMARK  6 active torsions:
REMARK  status: ('A' for Active; 'I' for Inactive)
REMARK    1  A    between atoms: C1_1  and  O3_3 
REMARK    2  A    between atoms: C2_2  and  O5_5 
REMARK    3  A    between atoms: O3_3  and  C7_7 
REMARK    4  A    between atoms: O5_5  and  C9_9 
REMARK       I    between atoms: C7_7  and  N12_12 
REMARK       I    between atoms: C9_9  and  N14_14 
REMARK    5  A    between atoms: N12_12  and  C16_16 
REMARK    6  A    between atoms: N14_14  and  C17_17 
ROOT
ATOM      1  C1  UNK d   1      -3.010  -6.193  22.663  0.00  0.00     0.118 A 
ATOM      2  C2  UNK d   1      -3.000  -4.950  23.346  0.00  0.00     0.153 A 
ATOM      3  C4  UNK d   1      -2.597  -6.253  21.315  0.00  0.00     0.040 A 
ATOM      4  C6  UNK d   1      -2.632  -3.776  22.656  0.00  0.00     0.153 A 
ATOM      5  C8  UNK d   1      -2.215  -5.080  20.637  0.00  0.00     0.006 A 
ATOM      6  C10 UNK d   1      -2.237  -3.842  21.306  0.00  0.00     0.045 A 
ATOM      7  F11 UNK d   1      -2.649  -2.580  23.292  0.00  0.00    -0.203 F 
ENDROOT
BRANCH   1   8
ATOM      8  O3  UNK d   1      -3.356  -7.355  23.308  0.00  0.00    -0.258 OA
BRANCH   8   9
ATOM      9  C7  UNK d   1      -2.441  -8.009  24.051  0.00  0.00     0.370 C 
ATOM     10  N12 UNK d   1      -2.958  -9.262  24.352  0.00  0.00    -0.302 N 
ATOM     11  H31 UNK d   1      -3.855  -9.459  23.932  0.00  0.00     0.171 HD
ATOM     12  O13 UNK d   1      -1.342  -7.551  24.372  0.00  0.00    -0.238 OA
BRANCH  10  13
ATOM     13  C16 UNK d   1      -2.344 -10.313  25.082  0.00  0.00     0.036 A 
ATOM     14  C18 UNK d   1      -3.080 -10.874  26.148  0.00  0.00     0.029 A 
ATOM     15  C22 UNK d   1      -2.533 -11.913  26.926  0.00  0.00     0.002 A 
ATOM     16  C26 UNK d   1      -1.241 -12.395  26.649  0.00  0.00     0.000 A 
ATOM     17  C23 UNK d   1      -0.495 -11.834  25.595  0.00  0.00     0.002 A 
ATOM     18  C19 UNK d   1      -1.040 -10.796  24.815  0.00  0.00     0.029 A 
ENDBRANCH  10  13
ENDBRANCH   8   9
ENDBRANCH   1   8
BRANCH   2  19
ATOM     19  O5  UNK d   1      -3.402  -4.863  24.657  0.00  0.00    -0.255 OA
BRANCH  19  20
ATOM     20  C9  UNK d   1      -4.615  -5.332  25.015  0.00  0.00     0.370 C 
ATOM     21  N14 UNK d   1      -4.459  -6.043  26.197  0.00  0.00    -0.302 N 
ATOM     22  H32 UNK d   1      -3.524  -6.031  26.575  0.00  0.00     0.171 HD
ATOM     23  O15 UNK d   1      -5.658  -5.129  24.389  0.00  0.00    -0.238 OA
BRANCH  21  24
ATOM     24  C17 UNK d   1      -5.458  -6.691  26.971  0.00  0.00     0.036 A 
ATOM     25  C20 UNK d   1      -5.375  -8.095  27.087  0.00  0.00     0.029 A 
ATOM     26  C24 UNK d   1      -6.337  -8.808  27.829  0.00  0.00     0.002 A 
ATOM     27  C27 UNK d   1      -7.395  -8.123  28.455  0.00  0.00     0.000 A 
ATOM     28  C25 UNK d   1      -7.492  -6.724  28.335  0.00  0.00     0.002 A 
ATOM     29  C21 UNK d   1      -6.531  -6.008  27.593  0.00  0.00     0.029 A 
ENDBRANCH  21  24
ENDBRANCH  19  20
ENDBRANCH   2  19
TORSDOF 6
ENDMDL
