REMARK  6 active torsions:
REMARK  status: ('A' for Active; 'I' for Inactive)
REMARK    1  A    between atoms: C1_1  and  O3_3 
REMARK    2  A    between atoms: C2_2  and  O5_5 
REMARK    3  A    between atoms: O3_3  and  C7_7 
REMARK    4  A    between atoms: O5_5  and  C9_9 
REMARK       I    between atoms: C7_7  and  N12_12 
REMARK       I    between atoms: C9_9  and  N14_14 
REMARK    5  A    between atoms: N12_12  and  C16_16 
REMARK    6  A    between atoms: N14_14  and  C17_17 
ROOT
ATOM      1  C1  UNK d   1      -2.369  -0.453  -0.341  0.00  0.00     0.118 A 
ATOM      2  C2  UNK d   1      -2.376   0.693   0.494  0.00  0.00     0.153 A 
ATOM      3  C4  UNK d   1      -3.591  -1.000  -0.787  0.00  0.00     0.040 A 
ATOM      4  C6  UNK d   1      -3.605   1.241   0.918  0.00  0.00     0.153 A 
ATOM      5  C8  UNK d   1      -4.814  -0.438  -0.374  0.00  0.00     0.006 A 
ATOM      6  C10 UNK d   1      -4.820   0.679   0.483  0.00  0.00     0.045 A 
ATOM      7  F11 UNK d   1      -3.620   2.317   1.742  0.00  0.00    -0.203 F 
ENDROOT
BRANCH   1   8
ATOM      8  O3  UNK d   1      -1.190  -1.007  -0.778  0.00  0.00    -0.258 OA
BRANCH   8   9
ATOM      9  C7  UNK d   1      -0.484  -1.814   0.039  0.00  0.00     0.370 C 
ATOM     10  N12 UNK d   1       0.678  -2.177  -0.628  0.00  0.00    -0.302 N 
ATOM     11  H31 UNK d   1       0.797  -1.746  -1.533  0.00  0.00     0.171 HD
ATOM     12  O13 UNK d   1      -0.831  -2.136   1.177  0.00  0.00    -0.238 OA
BRANCH  10  13
ATOM     13  C16 UNK d   1       1.744  -2.988  -0.157  0.00  0.00     0.036 A 
ATOM     14  C18 UNK d   1       2.977  -2.893  -0.837  0.00  0.00     0.029 A 
ATOM     15  C22 UNK d   1       4.078  -3.674  -0.436  0.00  0.00     0.002 A 
ATOM     16  C26 UNK d   1       3.952  -4.565   0.646  0.00  0.00     0.000 A 
ATOM     17  C23 UNK d   1       2.723  -4.676   1.323  0.00  0.00     0.002 A 
ATOM     18  C19 UNK d   1       1.621  -3.895   0.924  0.00  0.00     0.029 A 
ENDBRANCH  10  13
ENDBRANCH   8   9
ENDBRANCH   1   8
BRANCH   2  19
ATOM     19  O5  UNK d   1      -1.201   1.242   0.947  0.00  0.00    -0.255 OA
BRANCH  19  20
ATOM     20  C9  UNK d   1      -0.511   2.088   0.155  0.00  0.00     0.370 C 
ATOM     21  N14 UNK d   1       0.647   2.447   0.831  0.00  0.00    -0.302 N 
ATOM     22  H32 UNK d   1       0.775   1.989   1.721  0.00  0.00     0.171 HD
ATOM     23  O15 UNK d   1      -0.867   2.441  -0.971  0.00  0.00    -0.238 OA
BRANCH  21  24
ATOM     24  C17 UNK d   1       1.699   3.291   0.385  0.00  0.00     0.036 A 
ATOM     25  C20 UNK d   1       2.935   3.192   1.057  0.00  0.00     0.029 A 
ATOM     26  C24 UNK d   1       4.021   4.005   0.679  0.00  0.00     0.002 A 
ATOM     27  C27 UNK d   1       3.877   4.930  -0.371  0.00  0.00     0.000 A 
ATOM     28  C25 UNK d   1       2.644   5.044  -1.040  0.00  0.00     0.002 A 
ATOM     29  C21 UNK d   1       1.556   4.232  -0.664  0.00  0.00     0.029 A 
ENDBRANCH  21  24
ENDBRANCH  19  20
ENDBRANCH   2  19
TORSDOF 6
