@<TRIPOS>MOLECULE
./may6.pdb
 50 53 0 0 0
SMALL
GASTEIGER

@<TRIPOS>ATOM
      1  C1         2.3060   -0.2060    0.4680 C.3     1  UNK1        0.0121
      2  C2         1.6610   -0.8080   -0.8130 C.3     1  UNK1       -0.0278
      3  C3         3.5020   -0.9990    0.9920 C.ar    1  UNK1       -0.0397
      4  C4         2.6350    1.2810    0.3580 C.ar    1  UNK1       -0.0397
      5  C5         0.4060   -0.0270   -1.2540 C.3     1  UNK1       -0.0348
      6  C6         1.2740   -2.2900   -0.6280 C.3     1  UNK1       -0.0348
      7  C7         4.5960   -1.3070    0.1520 C.ar    1  UNK1       -0.0580
      8  C8         3.5220   -1.4330    2.3360 C.ar    1  UNK1       -0.0580
      9  C9         2.1680    2.1770    1.3460 C.ar    1  UNK1       -0.0580
     10  C10        3.4060    1.7810   -0.7160 C.ar    1  UNK1       -0.0580
     11  C11       -0.2510   -0.6410   -2.5020 C.3     1  UNK1        0.0208
     12  C12        0.6110   -2.8770   -1.8850 C.3     1  UNK1        0.0208
     13  C13        5.6910   -2.0400    0.6490 C.ar    1  UNK1       -0.0615
     14  C14        4.6170   -2.1650    2.8330 C.ar    1  UNK1       -0.0615
     15  C15        2.4630    3.5510    1.2590 C.ar    1  UNK1       -0.0615
     16  C16        3.7010    3.1550   -0.8020 C.ar    1  UNK1       -0.0615
     17  N17       -0.5490   -2.0720   -2.3110 N.3     1  UNK1       -0.1761
     18  C18        5.7020   -2.4700    1.9890 C.ar    1  UNK1       -0.0617
     19  C19        3.2300    4.0410    0.1840 C.ar    1  UNK1       -0.0617
     20  S20       -2.1540   -2.5700   -1.8590 S.O2    1  UNK1        0.0672
     21  C21       -2.2980   -2.1770   -0.1310 C.ar    1  UNK1        0.1440
     22  O22       -3.1190   -1.7140   -2.5660 O.2     1  UNK1       -0.1523
     23  O23       -2.2310   -4.0350   -1.9710 O.2     1  UNK1       -0.1523
     24  S24       -1.9580   -3.3680    1.1010 S.2     1  UNK1       -0.0570
     25  C25       -2.7040   -0.9820    0.4080 C.ar    1  UNK1       -0.0266
     26  C26       -2.3310   -2.2060    2.3410 C.ar    1  UNK1        0.0798
     27  C27       -2.7130   -0.9930    1.8340 C.ar    1  UNK1       -0.0343
     28 Cl28       -2.1940   -2.6760    3.9870 Cl      1  UNK1       -0.0758
     29  H29        1.5360   -0.2850    1.2370 H       1  UNK1        0.0400
     30  H30        2.3830   -0.7570   -1.6280 H       1  UNK1        0.0311
     31  H31       -0.3110    0.0070   -0.4350 H       1  UNK1        0.0281
     32  H32        0.6590    1.0100   -1.4730 H       1  UNK1        0.0281
     33  H33        2.1540   -2.8890   -0.3910 H       1  UNK1        0.0281
     34  H34        0.6060   -2.3880    0.2260 H       1  UNK1        0.0281
     35  H35        4.6030   -0.9860   -0.8780 H       1  UNK1        0.0620
     36  H36        2.6960   -1.2050    2.9950 H       1  UNK1        0.0620
     37  H37        1.5810    1.8150    2.1770 H       1  UNK1        0.0620
     38  H38        3.7760    1.1160   -1.4810 H       1  UNK1        0.0620
     39  H39       -1.1590   -0.0960   -2.7620 H       1  UNK1        0.0444
     40  H40        0.4210   -0.5390   -3.3540 H       1  UNK1        0.0444
     41  H41        1.3330   -2.9020   -2.7020 H       1  UNK1        0.0444
     42  H42        0.3100   -3.9100   -1.7100 H       1  UNK1        0.0444
     43  H43        6.5240   -2.2720    0.0010 H       1  UNK1        0.0618
     44  H44        4.6250   -2.4930    3.8620 H       1  UNK1        0.0618
     45  H45        2.1020    4.2300    2.0180 H       1  UNK1        0.0618
     46  H46        4.2900    3.5300   -1.6270 H       1  UNK1        0.0618
     47  H47        6.5420   -3.0310    2.3700 H       1  UNK1        0.0618
     48  H48        3.4560    5.0950    0.1180 H       1  UNK1        0.0618
     49  H49       -2.9800   -0.1100   -0.1670 H       1  UNK1        0.0643
     50  H50       -2.9960   -0.1330    2.4230 H       1  UNK1        0.0638
@<TRIPOS>BOND
     1     1     2    1
     2     1     3    1
     3     1     4    1
     4     1    29    1
     5     2     5    1
     6     2     6    1
     7     2    30    1
     8     3     7   ar
     9     3     8   ar
    10     4     9   ar
    11     4    10   ar
    12     5    11    1
    13     5    31    1
    14     5    32    1
    15     6    12    1
    16     6    33    1
    17     6    34    1
    18     7    13   ar
    19     7    35    1
    20     8    14   ar
    21     8    36    1
    22     9    15   ar
    23     9    37    1
    24    10    16   ar
    25    10    38    1
    26    11    17    1
    27    11    39    1
    28    11    40    1
    29    12    17    1
    30    12    41    1
    31    12    42    1
    32    13    18   ar
    33    13    43    1
    34    14    18   ar
    35    14    44    1
    36    15    19   ar
    37    15    45    1
    38    16    19   ar
    39    16    46    1
    40    17    20    1
    41    18    47    1
    42    19    48    1
    43    20    21    1
    44    20    22    2
    45    20    23    2
    46    21    24   ar
    47    21    25   ar
    48    24    26   ar
    49    25    27   ar
    50    25    49    1
    51    26    28    1
    52    26    27   ar
    53    27    50    1
