REMARK  5 active torsions:
REMARK  status: ('A' for Active; 'I' for Inactive)
REMARK    1  A    between atoms: C1_1  and  C2_2 
REMARK    2  A    between atoms: C1_1  and  C3_3 
REMARK    3  A    between atoms: C1_1  and  C4_4 
REMARK    4  A    between atoms: N17_17  and  S20_20 
REMARK    5  A    between atoms: S20_20  and  C21_21 
ROOT
ATOM      1  C2  UNK d   1       1.661  -0.808  -0.813  0.00  0.00     0.002 C 
ATOM      2  C5  UNK d   1       0.406  -0.027  -1.254  0.00  0.00     0.026 C 
ATOM      3  C6  UNK d   1       1.274  -2.290  -0.628  0.00  0.00     0.026 C 
ATOM      4  C11 UNK d   1      -0.251  -0.641  -2.502  0.00  0.00     0.136 C 
ATOM      5  C12 UNK d   1       0.611  -2.877  -1.885  0.00  0.00     0.136 C 
ATOM      6  N17 UNK d   1      -0.549  -2.072  -2.311  0.00  0.00    -0.306 N 
ENDROOT
BRANCH   1   7
ATOM      7  C1  UNK d   1       2.306  -0.206   0.468  0.00  0.00     0.056 C 
BRANCH   7   8
ATOM      8  C3  UNK d   1       3.502  -0.999   0.992  0.00  0.00    -0.049 A 
ATOM      9  C7  UNK d   1       4.596  -1.307   0.152  0.00  0.00     0.008 A 
ATOM     10  C13 UNK d   1       5.691  -2.040   0.649  0.00  0.00     0.001 A 
ATOM     11  C18 UNK d   1       5.702  -2.470   1.989  0.00  0.00     0.000 A 
ATOM     12  C14 UNK d   1       4.617  -2.165   2.833  0.00  0.00     0.001 A 
ATOM     13  C8  UNK d   1       3.522  -1.433   2.336  0.00  0.00     0.008 A 
ENDBRANCH   7   8
BRANCH   7  14
ATOM     14  C4  UNK d   1       2.635   1.281   0.358  0.00  0.00    -0.049 A 
ATOM     15  C9  UNK d   1       2.168   2.177   1.346  0.00  0.00     0.008 A 
ATOM     16  C15 UNK d   1       2.463   3.551   1.259  0.00  0.00     0.001 A 
ATOM     17  C19 UNK d   1       3.230   4.041   0.184  0.00  0.00     0.000 A 
ATOM     18  C16 UNK d   1       3.701   3.155  -0.802  0.00  0.00     0.001 A 
ATOM     19  C10 UNK d   1       3.406   1.781  -0.716  0.00  0.00     0.008 A 
ENDBRANCH   7  14
ENDBRANCH   1   7
BRANCH   6  20
ATOM     20  S20 UNK d   1      -2.154  -2.570  -1.859  0.00  0.00     0.267 S 
ATOM     21  O22 UNK d   1      -3.119  -1.714  -2.566  0.00  0.00    -0.200 OA
ATOM     22  O23 UNK d   1      -2.231  -4.035  -1.971  0.00  0.00    -0.200 OA
BRANCH  20  23
ATOM     23  C21 UNK d   1      -2.298  -2.177  -0.131  0.00  0.00     0.121 A 
ATOM     24  S24 UNK d   1      -1.958  -3.368   1.101  0.00  0.00    -0.064 SA
ATOM     25  C26 UNK d   1      -2.331  -2.206   2.341  0.00  0.00     0.075 A 
ATOM     26 Cl28 UNK d   1      -2.194  -2.676   3.987  0.00  0.00    -0.076 Cl
ATOM     27  C27 UNK d   1      -2.713  -0.993   1.834  0.00  0.00     0.033 A 
ATOM     28  C25 UNK d   1      -2.704  -0.982   0.408  0.00  0.00     0.035 A 
ENDBRANCH  20  23
ENDBRANCH   6  20
TORSDOF 5
