MODEL 1
REMARK VINA RESULT:    -7.761      0.000      0.000
REMARK INTER + INTRA:         -11.637
REMARK INTER:                 -10.030
REMARK INTRA:                  -1.608
REMARK UNBOUND:                -1.608
REMARK  5 active torsions:
REMARK  status: ('A' for Active; 'I' for Inactive)
REMARK    1  A    between atoms: C1_1  and  C2_2 
REMARK    2  A    between atoms: C1_1  and  C3_3 
REMARK    3  A    between atoms: C1_1  and  C4_4 
REMARK    4  A    between atoms: N17_17  and  S20_20 
REMARK    5  A    between atoms: S20_20  and  C21_21 
ROOT
ATOM      1  C2  UNK d   1      -1.972  -7.885  24.352  0.00  0.00     0.002 C 
ATOM      2  C5  UNK d   1      -3.039  -8.976  24.578  0.00  0.00     0.026 C 
ATOM      3  C6  UNK d   1      -0.779  -8.168  25.287  0.00  0.00     0.026 C 
ATOM      4  C11 UNK d   1      -2.464 -10.393  24.415  0.00  0.00     0.136 C 
ATOM      5  C12 UNK d   1      -0.229  -9.593  25.111  0.00  0.00     0.136 C 
ATOM      6  N17 UNK d   1      -1.288 -10.606  25.277  0.00  0.00    -0.306 N 
ENDROOT
BRANCH   1   7
ATOM      7  C1  UNK d   1      -2.547  -6.453  24.550  0.00  0.00     0.056 C 
BRANCH   7   8
ATOM      8  C3  UNK d   1      -2.447  -5.568  23.309  0.00  0.00    -0.049 A 
ATOM      9  C7  UNK d   1      -2.401  -4.159  23.421  0.00  0.00     0.008 A 
ATOM     10  C13 UNK d   1      -2.310  -3.356  22.268  0.00  0.00     0.001 A 
ATOM     11  C18 UNK d   1      -2.263  -3.953  20.995  0.00  0.00     0.000 A 
ATOM     12  C14 UNK d   1      -2.305  -5.355  20.874  0.00  0.00     0.001 A 
ATOM     13  C8  UNK d   1      -2.397  -6.158  22.027  0.00  0.00     0.008 A 
ENDBRANCH   7   8
BRANCH   7  14
ATOM     14  C4  UNK d   1      -3.956  -6.425  25.136  0.00  0.00    -0.049 A 
ATOM     15  C9  UNK d   1      -4.131  -6.355  26.536  0.00  0.00     0.008 A 
ATOM     16  C15 UNK d   1      -5.425  -6.327  27.093  0.00  0.00     0.001 A 
ATOM     17  C19 UNK d   1      -6.555  -6.368  26.253  0.00  0.00     0.000 A 
ATOM     18  C16 UNK d   1      -6.389  -6.435  24.857  0.00  0.00     0.001 A 
ATOM     19  C10 UNK d   1      -5.096  -6.463  24.300  0.00  0.00     0.008 A 
ENDBRANCH   7  14
ENDBRANCH   1   7
BRANCH   6  20
ATOM     20  S20 UNK d   1      -1.469 -11.418  26.805  0.00  0.00     0.267 S 
ATOM     21  O22 UNK d   1      -1.188 -12.847  26.604  0.00  0.00    -0.200 OA
ATOM     22  O23 UNK d   1      -0.740 -10.648  27.826  0.00  0.00    -0.200 OA
BRANCH  20  23
ATOM     23  C21 UNK d   1      -3.198 -11.291  27.202  0.00  0.00     0.121 A 
ATOM     24  S24 UNK d   1      -3.855  -9.852  27.942  0.00  0.00    -0.064 SA
ATOM     25  C26 UNK d   1      -5.439 -10.571  27.956  0.00  0.00     0.075 A 
ATOM     26 Cl28 UNK d   1      -6.757  -9.664  28.581  0.00  0.00    -0.076 Cl
ATOM     27  C27 UNK d   1      -5.450 -11.841  27.446  0.00  0.00     0.033 A 
ATOM     28  C25 UNK d   1      -4.154 -12.259  27.022  0.00  0.00     0.035 A 
ENDBRANCH  20  23
ENDBRANCH   6  20
TORSDOF 5
ENDMDL
MODEL 2
REMARK VINA RESULT:    -7.607      0.723      3.562
REMARK INTER + INTRA:         -11.438
REMARK INTER:                 -10.167
REMARK INTRA:                  -1.271
REMARK UNBOUND:                -1.608
REMARK  5 active torsions:
REMARK  status: ('A' for Active; 'I' for Inactive)
REMARK    1  A    between atoms: C1_1  and  C2_2 
REMARK    2  A    between atoms: C1_1  and  C3_3 
REMARK    3  A    between atoms: C1_1  and  C4_4 
REMARK    4  A    between atoms: N17_17  and  S20_20 
REMARK    5  A    between atoms: S20_20  and  C21_21 
ROOT
ATOM      1  C2  UNK d   1      -2.573  -8.535  23.889  0.00  0.00     0.002 C 
ATOM      2  C5  UNK d   1      -3.254  -9.908  24.059  0.00  0.00     0.026 C 
ATOM      3  C6  UNK d   1      -1.530  -8.364  25.012  0.00  0.00     0.026 C 
ATOM      4  C11 UNK d   1      -2.234 -11.058  24.118  0.00  0.00     0.136 C 
ATOM      5  C12 UNK d   1      -0.529  -9.530  25.056  0.00  0.00     0.136 C 
ATOM      6  N17 UNK d   1      -1.217 -10.830  25.160  0.00  0.00    -0.306 N 
ENDROOT
BRANCH   1   7
ATOM      7  C1  UNK d   1      -3.602  -7.369  23.862  0.00  0.00     0.056 C 
BRANCH   7   8
ATOM      8  C3  UNK d   1      -4.163  -7.005  25.236  0.00  0.00    -0.049 A 
ATOM      9  C7  UNK d   1      -3.318  -6.534  26.266  0.00  0.00     0.008 A 
ATOM     10  C13 UNK d   1      -3.849  -6.203  27.528  0.00  0.00     0.001 A 
ATOM     11  C18 UNK d   1      -5.229  -6.340  27.770  0.00  0.00     0.000 A 
ATOM     12  C14 UNK d   1      -6.078  -6.807  26.748  0.00  0.00     0.001 A 
ATOM     13  C8  UNK d   1      -5.547  -7.138  25.487  0.00  0.00     0.008 A 
ENDBRANCH   7   8
BRANCH   7  14
ATOM     14  C4  UNK d   1      -3.117  -6.128  23.118  0.00  0.00    -0.049 A 
ATOM     15  C9  UNK d   1      -2.476  -6.267  21.866  0.00  0.00     0.008 A 
ATOM     16  C15 UNK d   1      -2.023  -5.132  21.167  0.00  0.00     0.001 A 
ATOM     17  C19 UNK d   1      -2.208  -3.847  21.712  0.00  0.00     0.000 A 
ATOM     18  C16 UNK d   1      -2.848  -3.700  22.957  0.00  0.00     0.001 A 
ATOM     19  C10 UNK d   1      -3.301  -4.834  23.657  0.00  0.00     0.008 A 
ENDBRANCH   7  14
ENDBRANCH   1   7
BRANCH   6  20
ATOM     20  S20 UNK d   1      -1.385 -11.592  26.716  0.00  0.00     0.267 S 
ATOM     21  O22 UNK d   1      -1.130 -13.032  26.555  0.00  0.00    -0.200 OA
ATOM     22  O23 UNK d   1      -0.626 -10.804  27.700  0.00  0.00    -0.200 OA
BRANCH  20  23
ATOM     23  C21 UNK d   1      -3.104 -11.425  27.137  0.00  0.00     0.121 A 
ATOM     24  S24 UNK d   1      -3.720  -9.964  27.871  0.00  0.00    -0.064 SA
ATOM     25  C26 UNK d   1      -5.318 -10.650  27.918  0.00  0.00     0.075 A 
ATOM     26 Cl28 UNK d   1      -6.607  -9.708  28.552  0.00  0.00    -0.076 Cl
ATOM     27  C27 UNK d   1      -5.363 -11.925  27.422  0.00  0.00     0.033 A 
ATOM     28  C25 UNK d   1      -4.083 -12.374  26.983  0.00  0.00     0.035 A 
ENDBRANCH  20  23
ENDBRANCH   6  20
TORSDOF 5
ENDMDL
MODEL 3
REMARK VINA RESULT:    -7.487      1.805      2.080
REMARK INTER + INTRA:         -11.283
REMARK INTER:                  -9.352
REMARK INTRA:                  -1.932
REMARK UNBOUND:                -1.608
REMARK  5 active torsions:
REMARK  status: ('A' for Active; 'I' for Inactive)
REMARK    1  A    between atoms: C1_1  and  C2_2 
REMARK    2  A    between atoms: C1_1  and  C3_3 
REMARK    3  A    between atoms: C1_1  and  C4_4 
REMARK    4  A    between atoms: N17_17  and  S20_20 
REMARK    5  A    between atoms: S20_20  and  C21_21 
ROOT
ATOM      1  C2  UNK d   1      -2.405  -8.054  24.242  0.00  0.00     0.002 C 
ATOM      2  C5  UNK d   1      -3.624  -8.998  24.258  0.00  0.00     0.026 C 
ATOM      3  C6  UNK d   1      -1.389  -8.550  25.292  0.00  0.00     0.026 C 
ATOM      4  C11 UNK d   1      -3.222 -10.470  24.063  0.00  0.00     0.136 C 
ATOM      5  C12 UNK d   1      -1.011 -10.025  25.081  0.00  0.00     0.136 C 
ATOM      6  N17 UNK d   1      -2.205 -10.890  25.044  0.00  0.00    -0.306 N 
ENDROOT
BRANCH   1   7
ATOM      7  C1  UNK d   1      -2.809  -6.570  24.472  0.00  0.00     0.056 C 
BRANCH   7   8
ATOM      8  C3  UNK d   1      -2.640  -5.683  23.240  0.00  0.00    -0.049 A 
ATOM      9  C7  UNK d   1      -2.522  -4.280  23.363  0.00  0.00     0.008 A 
ATOM     10  C13 UNK d   1      -2.369  -3.475  22.218  0.00  0.00     0.001 A 
ATOM     11  C18 UNK d   1      -2.330  -4.065  20.941  0.00  0.00     0.000 A 
ATOM     12  C14 UNK d   1      -2.444  -5.462  20.810  0.00  0.00     0.001 A 
ATOM     13  C8  UNK d   1      -2.599  -6.267  21.954  0.00  0.00     0.008 A 
ENDBRANCH   7   8
BRANCH   7  14
ATOM     14  C4  UNK d   1      -4.191  -6.392  25.095  0.00  0.00    -0.049 A 
ATOM     15  C9  UNK d   1      -4.327  -6.358  26.501  0.00  0.00     0.008 A 
ATOM     16  C15 UNK d   1      -5.595  -6.195  27.091  0.00  0.00     0.001 A 
ATOM     17  C19 UNK d   1      -6.738  -6.061  26.280  0.00  0.00     0.000 A 
ATOM     18  C16 UNK d   1      -6.611  -6.090  24.879  0.00  0.00     0.001 A 
ATOM     19  C10 UNK d   1      -5.344  -6.254  24.289  0.00  0.00     0.008 A 
ENDBRANCH   7  14
ENDBRANCH   1   7
BRANCH   6  20
ATOM     20  S20 UNK d   1      -2.688 -11.753  26.476  0.00  0.00     0.267 S 
ATOM     21  O22 UNK d   1      -4.124 -12.051  26.374  0.00  0.00    -0.200 OA
ATOM     22  O23 UNK d   1      -1.715 -12.830  26.715  0.00  0.00    -0.200 OA
BRANCH  20  23
ATOM     23  C21 UNK d   1      -2.505 -10.589  27.809  0.00  0.00     0.121 A 
ATOM     24  S24 UNK d   1      -1.174 -10.702  28.935  0.00  0.00    -0.064 SA
ATOM     25  C26 UNK d   1      -1.765  -9.306  29.788  0.00  0.00     0.075 A 
ATOM     26 Cl28 UNK d   1      -0.887  -8.731  31.147  0.00  0.00    -0.076 Cl
ATOM     27  C27 UNK d   1      -2.921  -8.806  29.251  0.00  0.00     0.033 A 
ATOM     28  C25 UNK d   1      -3.352  -9.554  28.116  0.00  0.00     0.035 A 
ENDBRANCH  20  23
ENDBRANCH   6  20
TORSDOF 5
ENDMDL
MODEL 4
REMARK VINA RESULT:    -7.424      2.683      4.198
REMARK INTER + INTRA:         -11.202
REMARK INTER:                  -9.814
REMARK INTRA:                  -1.387
REMARK UNBOUND:                -1.608
REMARK  5 active torsions:
REMARK  status: ('A' for Active; 'I' for Inactive)
REMARK    1  A    between atoms: C1_1  and  C2_2 
REMARK    2  A    between atoms: C1_1  and  C3_3 
REMARK    3  A    between atoms: C1_1  and  C4_4 
REMARK    4  A    between atoms: N17_17  and  S20_20 
REMARK    5  A    between atoms: S20_20  and  C21_21 
ROOT
ATOM      1  C2  UNK d   1      -3.012  -5.933  23.254  0.00  0.00     0.002 C 
ATOM      2  C5  UNK d   1      -3.761  -5.536  24.542  0.00  0.00     0.026 C 
ATOM      3  C6  UNK d   1      -2.615  -7.421  23.358  0.00  0.00     0.026 C 
ATOM      4  C11 UNK d   1      -4.956  -6.462  24.827  0.00  0.00     0.136 C 
ATOM      5  C12 UNK d   1      -3.824  -8.323  23.653  0.00  0.00     0.136 C 
ATOM      6  N17 UNK d   1      -4.550  -7.879  24.858  0.00  0.00    -0.306 N 
ENDROOT
BRANCH   1   7
ATOM      7  C1  UNK d   1      -1.784  -5.017  22.984  0.00  0.00     0.056 C 
BRANCH   7   8
ATOM      8  C3  UNK d   1      -1.345  -4.983  21.521  0.00  0.00    -0.049 A 
ATOM      9  C7  UNK d   1      -2.113  -5.613  20.515  0.00  0.00     0.008 A 
ATOM     10  C13 UNK d   1      -1.695  -5.574  19.171  0.00  0.00     0.001 A 
ATOM     11  C18 UNK d   1      -0.508  -4.904  18.821  0.00  0.00     0.000 A 
ATOM     12  C14 UNK d   1       0.261  -4.271  19.816  0.00  0.00     0.001 A 
ATOM     13  C8  UNK d   1      -0.156  -4.311  21.160  0.00  0.00     0.008 A 
ENDBRANCH   7   8
BRANCH   7  14
ATOM     14  C4  UNK d   1      -1.925  -3.606  23.551  0.00  0.00    -0.049 A 
ATOM     15  C9  UNK d   1      -1.083  -3.187  24.605  0.00  0.00     0.008 A 
ATOM     16  C15 UNK d   1      -1.200  -1.890  25.139  0.00  0.00     0.001 A 
ATOM     17  C19 UNK d   1      -2.160  -0.998  24.621  0.00  0.00     0.000 A 
ATOM     18  C16 UNK d   1      -3.001  -1.407  23.570  0.00  0.00     0.001 A 
ATOM     19  C10 UNK d   1      -2.884  -2.705  23.036  0.00  0.00     0.008 A 
ENDBRANCH   7  14
ENDBRANCH   1   7
BRANCH   6  20
ATOM     20  S20 UNK d   1      -4.247  -8.661  26.382  0.00  0.00     0.267 S 
ATOM     21  O22 UNK d   1      -4.594 -10.084  26.248  0.00  0.00    -0.200 OA
ATOM     22  O23 UNK d   1      -2.911  -8.257  26.850  0.00  0.00    -0.200 OA
BRANCH  20  23
ATOM     23  C21 UNK d   1      -5.424  -7.956  27.514  0.00  0.00     0.121 A 
ATOM     24  S24 UNK d   1      -4.967  -6.683  28.620  0.00  0.00    -0.064 SA
ATOM     25  C26 UNK d   1      -6.587  -6.642  29.255  0.00  0.00     0.075 A 
ATOM     26 Cl28 UNK d   1      -6.964  -5.513  30.493  0.00  0.00    -0.076 Cl
ATOM     27  C27 UNK d   1      -7.411  -7.564  28.668  0.00  0.00     0.033 A 
ATOM     28  C25 UNK d   1      -6.735  -8.328  27.672  0.00  0.00     0.035 A 
ENDBRANCH  20  23
ENDBRANCH   6  20
TORSDOF 5
ENDMDL
MODEL 5
REMARK VINA RESULT:    -7.256      2.135      2.972
REMARK INTER + INTRA:         -10.985
REMARK INTER:                  -9.443
REMARK INTRA:                  -1.542
REMARK UNBOUND:                -1.608
REMARK  5 active torsions:
REMARK  status: ('A' for Active; 'I' for Inactive)
REMARK    1  A    between atoms: C1_1  and  C2_2 
REMARK    2  A    between atoms: C1_1  and  C3_3 
REMARK    3  A    between atoms: C1_1  and  C4_4 
REMARK    4  A    between atoms: N17_17  and  S20_20 
REMARK    5  A    between atoms: S20_20  and  C21_21 
ROOT
ATOM      1  C2  UNK d   1      -3.500  -8.365  25.989  0.00  0.00     0.002 C 
ATOM      2  C5  UNK d   1      -3.911  -9.557  26.878  0.00  0.00     0.026 C 
ATOM      3  C6  UNK d   1      -2.024  -8.548  25.579  0.00  0.00     0.026 C 
ATOM      4  C11 UNK d   1      -3.635 -10.910  26.199  0.00  0.00     0.136 C 
ATOM      5  C12 UNK d   1      -1.773  -9.911  24.912  0.00  0.00     0.136 C 
ATOM      6  N17 UNK d   1      -2.231 -11.023  25.764  0.00  0.00    -0.306 N 
ENDROOT
BRANCH   1   7
ATOM      7  C1  UNK d   1      -3.749  -6.999  26.690  0.00  0.00     0.056 C 
BRANCH   7   8
ATOM      8  C3  UNK d   1      -3.348  -5.788  25.849  0.00  0.00    -0.049 A 
ATOM      9  C7  UNK d   1      -4.074  -5.435  24.689  0.00  0.00     0.008 A 
ATOM     10  C13 UNK d   1      -3.691  -4.317  23.923  0.00  0.00     0.001 A 
ATOM     11  C18 UNK d   1      -2.582  -3.543  24.310  0.00  0.00     0.000 A 
ATOM     12  C14 UNK d   1      -1.855  -3.886  25.466  0.00  0.00     0.001 A 
ATOM     13  C8  UNK d   1      -2.237  -5.005  26.231  0.00  0.00     0.008 A 
ENDBRANCH   7   8
BRANCH   7  14
ATOM     14  C4  UNK d   1      -5.159  -6.837  27.254  0.00  0.00    -0.049 A 
ATOM     15  C9  UNK d   1      -5.341  -6.653  28.643  0.00  0.00     0.008 A 
ATOM     16  C15 UNK d   1      -6.635  -6.502  29.178  0.00  0.00     0.001 A 
ATOM     17  C19 UNK d   1      -7.757  -6.532  28.328  0.00  0.00     0.000 A 
ATOM     18  C16 UNK d   1      -7.584  -6.712  26.944  0.00  0.00     0.001 A 
ATOM     19  C10 UNK d   1      -6.291  -6.864  26.408  0.00  0.00     0.008 A 
ENDBRANCH   7  14
ENDBRANCH   1   7
BRANCH   6  20
ATOM     20  S20 UNK d   1      -1.084 -11.876  26.756  0.00  0.00     0.267 S 
ATOM     21  O22 UNK d   1      -1.335 -13.319  26.616  0.00  0.00    -0.200 OA
ATOM     22  O23 UNK d   1       0.254 -11.321  26.496  0.00  0.00    -0.200 OA
BRANCH  20  23
ATOM     23  C21 UNK d   1      -1.502 -11.449  28.430  0.00  0.00     0.121 A 
ATOM     24  S24 UNK d   1      -2.477 -12.508  29.420  0.00  0.00    -0.064 SA
ATOM     25  C26 UNK d   1      -2.376 -11.383  30.742  0.00  0.00     0.075 A 
ATOM     26 Cl28 UNK d   1      -3.149 -11.773  32.225  0.00  0.00    -0.076 Cl
ATOM     27  C27 UNK d   1      -1.658 -10.260  30.429  0.00  0.00     0.033 A 
ATOM     28  C25 UNK d   1      -1.165 -10.295  29.092  0.00  0.00     0.035 A 
ENDBRANCH  20  23
ENDBRANCH   6  20
TORSDOF 5
ENDMDL
MODEL 6
REMARK VINA RESULT:    -7.249      2.748      4.516
REMARK INTER + INTRA:         -10.975
REMARK INTER:                  -9.770
REMARK INTRA:                  -1.205
REMARK UNBOUND:                -1.608
REMARK  5 active torsions:
REMARK  status: ('A' for Active; 'I' for Inactive)
REMARK    1  A    between atoms: C1_1  and  C2_2 
REMARK    2  A    between atoms: C1_1  and  C3_3 
REMARK    3  A    between atoms: C1_1  and  C4_4 
REMARK    4  A    between atoms: N17_17  and  S20_20 
REMARK    5  A    between atoms: S20_20  and  C21_21 
ROOT
ATOM      1  C2  UNK d   1      -2.890  -5.661  23.398  0.00  0.00     0.002 C 
ATOM      2  C5  UNK d   1      -4.050  -4.841  23.999  0.00  0.00     0.026 C 
ATOM      3  C6  UNK d   1      -2.489  -6.754  24.410  0.00  0.00     0.026 C 
ATOM      4  C11 UNK d   1      -5.229  -5.731  24.427  0.00  0.00     0.136 C 
ATOM      5  C12 UNK d   1      -3.686  -7.624  24.829  0.00  0.00     0.136 C 
ATOM      6  N17 UNK d   1      -4.797  -6.802  25.344  0.00  0.00    -0.306 N 
ENDROOT
BRANCH   1   7
ATOM      7  C1  UNK d   1      -1.684  -4.764  22.996  0.00  0.00     0.056 C 
BRANCH   7   8
ATOM      8  C3  UNK d   1      -1.301  -4.865  21.520  0.00  0.00    -0.049 A 
ATOM      9  C7  UNK d   1      -2.129  -5.544  20.598  0.00  0.00     0.008 A 
ATOM     10  C13 UNK d   1      -1.761  -5.630  19.241  0.00  0.00     0.001 A 
ATOM     11  C18 UNK d   1      -0.565  -5.037  18.795  0.00  0.00     0.000 A 
ATOM     12  C14 UNK d   1       0.264  -4.357  19.708  0.00  0.00     0.001 A 
ATOM     13  C8  UNK d   1      -0.103  -4.272  21.064  0.00  0.00     0.008 A 
ENDBRANCH   7   8
BRANCH   7  14
ATOM     14  C4  UNK d   1      -1.821  -3.307  23.432  0.00  0.00    -0.049 A 
ATOM     15  C9  UNK d   1      -1.259  -2.887  24.659  0.00  0.00     0.008 A 
ATOM     16  C15 UNK d   1      -1.376  -1.547  25.075  0.00  0.00     0.001 A 
ATOM     17  C19 UNK d   1      -2.056  -0.615  24.267  0.00  0.00     0.000 A 
ATOM     18  C16 UNK d   1      -2.616  -1.024  23.043  0.00  0.00     0.001 A 
ATOM     19  C10 UNK d   1      -2.499  -2.364  22.626  0.00  0.00     0.008 A 
ENDBRANCH   7  14
ENDBRANCH   1   7
BRANCH   6  20
ATOM     20  S20 UNK d   1      -4.998  -6.605  27.061  0.00  0.00     0.267 S 
ATOM     21  O22 UNK d   1      -3.726  -6.122  27.622  0.00  0.00    -0.200 OA
ATOM     22  O23 UNK d   1      -6.248  -5.867  27.298  0.00  0.00    -0.200 OA
BRANCH  20  23
ATOM     23  C21 UNK d   1      -5.241  -8.248  27.697  0.00  0.00     0.121 A 
ATOM     24  S24 UNK d   1      -3.886  -9.290  28.056  0.00  0.00    -0.064 SA
ATOM     25  C26 UNK d   1      -4.976 -10.548  28.564  0.00  0.00     0.075 A 
ATOM     26 Cl28 UNK d   1      -4.324 -12.031  29.133  0.00  0.00    -0.076 Cl
ATOM     27  C27 UNK d   1      -6.292 -10.191  28.441  0.00  0.00     0.033 A 
ATOM     28  C25 UNK d   1      -6.442  -8.868  27.930  0.00  0.00     0.035 A 
ENDBRANCH  20  23
ENDBRANCH   6  20
TORSDOF 5
ENDMDL
MODEL 7
REMARK VINA RESULT:    -7.238      3.211      4.948
REMARK INTER + INTRA:         -10.962
REMARK INTER:                  -9.140
REMARK INTRA:                  -1.822
REMARK UNBOUND:                -1.608
REMARK  5 active torsions:
REMARK  status: ('A' for Active; 'I' for Inactive)
REMARK    1  A    between atoms: C1_1  and  C2_2 
REMARK    2  A    between atoms: C1_1  and  C3_3 
REMARK    3  A    between atoms: C1_1  and  C4_4 
REMARK    4  A    between atoms: N17_17  and  S20_20 
REMARK    5  A    between atoms: S20_20  and  C21_21 
ROOT
ATOM      1  C2  UNK d   1      -3.236  -5.811  23.139  0.00  0.00     0.002 C 
ATOM      2  C5  UNK d   1      -4.211  -5.155  24.138  0.00  0.00     0.026 C 
ATOM      3  C6  UNK d   1      -2.906  -7.232  23.641  0.00  0.00     0.026 C 
ATOM      4  C11 UNK d   1      -5.462  -6.017  24.381  0.00  0.00     0.136 C 
ATOM      5  C12 UNK d   1      -4.172  -8.070  23.884  0.00  0.00     0.136 C 
ATOM      6  N17 UNK d   1      -5.106  -7.386  24.798  0.00  0.00    -0.306 N 
ENDROOT
BRANCH   1   7
ATOM      7  C1  UNK d   1      -1.957  -4.954  22.920  0.00  0.00     0.056 C 
BRANCH   7   8
ATOM      8  C3  UNK d   1      -1.451  -4.952  21.478  0.00  0.00    -0.049 A 
ATOM      9  C7  UNK d   1      -2.186  -5.580  20.447  0.00  0.00     0.008 A 
ATOM     10  C13 UNK d   1      -1.707  -5.571  19.123  0.00  0.00     0.001 A 
ATOM     11  C18 UNK d   1      -0.490  -4.933  18.818  0.00  0.00     0.000 A 
ATOM     12  C14 UNK d   1       0.247  -4.302  19.839  0.00  0.00     0.001 A 
ATOM     13  C8  UNK d   1      -0.232  -4.312  21.163  0.00  0.00     0.008 A 
ENDBRANCH   7   8
BRANCH   7  14
ATOM     14  C4  UNK d   1      -2.058  -3.534  23.472  0.00  0.00    -0.049 A 
ATOM     15  C9  UNK d   1      -2.823  -2.567  22.781  0.00  0.00     0.008 A 
ATOM     16  C15 UNK d   1      -2.926  -1.253  23.277  0.00  0.00     0.001 A 
ATOM     17  C19 UNK d   1      -2.268  -0.895  24.470  0.00  0.00     0.000 A 
ATOM     18  C16 UNK d   1      -1.507  -1.854  25.164  0.00  0.00     0.001 A 
ATOM     19  C10 UNK d   1      -1.403  -3.167  24.669  0.00  0.00     0.008 A 
ENDBRANCH   7  14
ENDBRANCH   1   7
BRANCH   6  20
ATOM     20  S20 UNK d   1      -5.124  -7.809  26.485  0.00  0.00     0.267 S 
ATOM     21  O22 UNK d   1      -6.185  -7.033  27.145  0.00  0.00    -0.200 OA
ATOM     22  O23 UNK d   1      -5.093  -9.276  26.593  0.00  0.00    -0.200 OA
BRANCH  20  23
ATOM     23  C21 UNK d   1      -3.580  -7.213  27.135  0.00  0.00     0.121 A 
ATOM     24  S24 UNK d   1      -2.280  -8.309  27.534  0.00  0.00    -0.064 SA
ATOM     25  C26 UNK d   1      -1.293  -6.969  28.043  0.00  0.00     0.075 A 
ATOM     26 Cl28 UNK d   1       0.299  -7.278  28.607  0.00  0.00    -0.076 Cl
ATOM     27  C27 UNK d   1      -1.935  -5.765  27.933  0.00  0.00     0.033 A 
ATOM     28  C25 UNK d   1      -3.258  -5.909  27.419  0.00  0.00     0.035 A 
ENDBRANCH  20  23
ENDBRANCH   6  20
TORSDOF 5
ENDMDL
MODEL 8
REMARK VINA RESULT:    -7.159      4.087      7.332
REMARK INTER + INTRA:         -10.860
REMARK INTER:                  -9.498
REMARK INTRA:                  -1.361
REMARK UNBOUND:                -1.608
REMARK  5 active torsions:
REMARK  status: ('A' for Active; 'I' for Inactive)
REMARK    1  A    between atoms: C1_1  and  C2_2 
REMARK    2  A    between atoms: C1_1  and  C3_3 
REMARK    3  A    between atoms: C1_1  and  C4_4 
REMARK    4  A    between atoms: N17_17  and  S20_20 
REMARK    5  A    between atoms: S20_20  and  C21_21 
ROOT
ATOM      1  C2  UNK d   1      -4.017  -7.192  25.236  0.00  0.00     0.002 C 
ATOM      2  C5  UNK d   1      -2.857  -7.807  24.426  0.00  0.00     0.026 C 
ATOM      3  C6  UNK d   1      -3.974  -5.659  25.063  0.00  0.00     0.026 C 
ATOM      4  C11 UNK d   1      -2.879  -7.364  22.953  0.00  0.00     0.136 C 
ATOM      5  C12 UNK d   1      -3.986  -5.243  23.583  0.00  0.00     0.136 C 
ATOM      6  N17 UNK d   1      -2.900  -5.895  22.828  0.00  0.00    -0.306 N 
ENDROOT
BRANCH   1   7
ATOM      7  C1  UNK d   1      -3.976  -7.614  26.733  0.00  0.00     0.056 C 
BRANCH   7   8
ATOM      8  C3  UNK d   1      -5.185  -7.150  27.542  0.00  0.00    -0.049 A 
ATOM      9  C7  UNK d   1      -5.042  -6.706  28.876  0.00  0.00     0.008 A 
ATOM     10  C13 UNK d   1      -6.167  -6.283  29.610  0.00  0.00     0.001 A 
ATOM     11  C18 UNK d   1      -7.443  -6.299  29.017  0.00  0.00     0.000 A 
ATOM     12  C14 UNK d   1      -7.594  -6.738  27.688  0.00  0.00     0.001 A 
ATOM     13  C8  UNK d   1      -6.470  -7.162  26.954  0.00  0.00     0.008 A 
ENDBRANCH   7   8
BRANCH   7  14
ATOM     14  C4  UNK d   1      -3.702  -9.101  26.951  0.00  0.00    -0.049 A 
ATOM     15  C9  UNK d   1      -4.718 -10.047  26.685  0.00  0.00     0.008 A 
ATOM     16  C15 UNK d   1      -4.481 -11.421  26.881  0.00  0.00     0.001 A 
ATOM     17  C19 UNK d   1      -3.226 -11.861  27.343  0.00  0.00     0.000 A 
ATOM     18  C16 UNK d   1      -2.208 -10.926  27.608  0.00  0.00     0.001 A 
ATOM     19  C10 UNK d   1      -2.444  -9.552  27.412  0.00  0.00     0.008 A 
ENDBRANCH   7  14
ENDBRANCH   1   7
BRANCH   6  20
ATOM     20  S20 UNK d   1      -1.421  -5.030  22.527  0.00  0.00     0.267 S 
ATOM     21  O22 UNK d   1      -0.416  -5.481  23.501  0.00  0.00    -0.200 OA
ATOM     22  O23 UNK d   1      -1.142  -5.083  21.083  0.00  0.00    -0.200 OA
BRANCH  20  23
ATOM     23  C21 UNK d   1      -1.782  -3.333  22.919  0.00  0.00     0.121 A 
ATOM     24  S24 UNK d   1      -1.613  -2.724  24.548  0.00  0.00    -0.064 SA
ATOM     25  C26 UNK d   1      -2.132  -1.149  24.022  0.00  0.00     0.075 A 
ATOM     26 Cl28 UNK d   1      -2.211   0.125  25.172  0.00  0.00    -0.076 Cl
ATOM     27  C27 UNK d   1      -2.435  -1.107  22.688  0.00  0.00     0.033 A 
ATOM     28  C25 UNK d   1      -2.244  -2.371  22.056  0.00  0.00     0.035 A 
ENDBRANCH  20  23
ENDBRANCH   6  20
TORSDOF 5
ENDMDL
MODEL 9
REMARK VINA RESULT:    -7.155      4.361      7.402
REMARK INTER + INTRA:         -10.854
REMARK INTER:                 -10.100
REMARK INTRA:                  -0.755
REMARK UNBOUND:                -1.608
REMARK  5 active torsions:
REMARK  status: ('A' for Active; 'I' for Inactive)
REMARK    1  A    between atoms: C1_1  and  C2_2 
REMARK    2  A    between atoms: C1_1  and  C3_3 
REMARK    3  A    between atoms: C1_1  and  C4_4 
REMARK    4  A    between atoms: N17_17  and  S20_20 
REMARK    5  A    between atoms: S20_20  and  C21_21 
ROOT
ATOM      1  C2  UNK d   1      -3.824  -6.342  25.283  0.00  0.00     0.002 C 
ATOM      2  C5  UNK d   1      -2.367  -6.819  25.119  0.00  0.00     0.026 C 
ATOM      3  C6  UNK d   1      -4.057  -5.146  24.337  0.00  0.00     0.026 C 
ATOM      4  C11 UNK d   1      -2.020  -7.131  23.654  0.00  0.00     0.136 C 
ATOM      5  C12 UNK d   1      -3.694  -5.481  22.880  0.00  0.00     0.136 C 
ATOM      6  N17 UNK d   1      -2.313  -5.989  22.770  0.00  0.00    -0.306 N 
ENDROOT
BRANCH   1   7
ATOM      7  C1  UNK d   1      -4.165  -5.994  26.761  0.00  0.00     0.056 C 
BRANCH   7   8
ATOM      8  C3  UNK d   1      -5.236  -6.891  27.378  0.00  0.00    -0.049 A 
ATOM      9  C7  UNK d   1      -5.194  -8.294  27.214  0.00  0.00     0.008 A 
ATOM     10  C13 UNK d   1      -6.190  -9.108  27.789  0.00  0.00     0.001 A 
ATOM     11  C18 UNK d   1      -7.234  -8.527  28.532  0.00  0.00     0.000 A 
ATOM     12  C14 UNK d   1      -7.281  -7.130  28.702  0.00  0.00     0.001 A 
ATOM     13  C8  UNK d   1      -6.287  -6.316  28.127  0.00  0.00     0.008 A 
ENDBRANCH   7   8
BRANCH   7  14
ATOM     14  C4  UNK d   1      -2.943  -5.886  27.671  0.00  0.00    -0.049 A 
ATOM     15  C9  UNK d   1      -2.924  -6.578  28.903  0.00  0.00     0.008 A 
ATOM     16  C15 UNK d   1      -1.805  -6.489  29.753  0.00  0.00     0.001 A 
ATOM     17  C19 UNK d   1      -0.694  -5.709  29.378  0.00  0.00     0.000 A 
ATOM     18  C16 UNK d   1      -0.704  -5.020  28.151  0.00  0.00     0.001 A 
ATOM     19  C10 UNK d   1      -1.823  -5.108  27.301  0.00  0.00     0.008 A 
ENDBRANCH   7  14
ENDBRANCH   1   7
BRANCH   6  20
ATOM     20  S20 UNK d   1      -1.034  -4.907  22.298  0.00  0.00     0.267 S 
ATOM     21  O22 UNK d   1       0.143  -5.193  23.132  0.00  0.00    -0.200 OA
ATOM     22  O23 UNK d   1      -0.934  -4.924  20.831  0.00  0.00    -0.200 OA
BRANCH  20  23
ATOM     23  C21 UNK d   1      -1.599  -3.285  22.757  0.00  0.00     0.121 A 
ATOM     24  S24 UNK d   1      -1.472  -2.712  24.403  0.00  0.00    -0.064 SA
ATOM     25  C26 UNK d   1      -2.199  -1.200  23.943  0.00  0.00     0.075 A 
ATOM     26 Cl28 UNK d   1      -2.413   0.015  25.138  0.00  0.00    -0.076 Cl
ATOM     27  C27 UNK d   1      -2.535  -1.154  22.617  0.00  0.00     0.033 A 
ATOM     28  C25 UNK d   1      -2.198  -2.362  21.937  0.00  0.00     0.035 A 
ENDBRANCH  20  23
ENDBRANCH   6  20
TORSDOF 5
ENDMDL
MODEL 10
REMARK VINA RESULT:    -7.094      2.439      4.698
REMARK INTER + INTRA:         -10.775
REMARK INTER:                 -10.002
REMARK INTRA:                  -0.774
REMARK UNBOUND:                -1.608
REMARK  5 active torsions:
REMARK  status: ('A' for Active; 'I' for Inactive)
REMARK    1  A    between atoms: C1_1  and  C2_2 
REMARK    2  A    between atoms: C1_1  and  C3_3 
REMARK    3  A    between atoms: C1_1  and  C4_4 
REMARK    4  A    between atoms: N17_17  and  S20_20 
REMARK    5  A    between atoms: S20_20  and  C21_21 
ROOT
ATOM      1  C2  UNK d   1      -4.750  -8.235  25.076  0.00  0.00     0.002 C 
ATOM      2  C5  UNK d   1      -4.360  -9.133  26.269  0.00  0.00     0.026 C 
ATOM      3  C6  UNK d   1      -3.616  -8.291  24.032  0.00  0.00     0.026 C 
ATOM      4  C11 UNK d   1      -4.013 -10.565  25.828  0.00  0.00     0.136 C 
ATOM      5  C12 UNK d   1      -3.282  -9.732  23.615  0.00  0.00     0.136 C 
ATOM      6  N17 UNK d   1      -2.971 -10.575  24.785  0.00  0.00    -0.306 N 
ENDROOT
BRANCH   1   7
ATOM      7  C1  UNK d   1      -5.070  -6.779  25.519  0.00  0.00     0.056 C 
BRANCH   7   8
ATOM      8  C3  UNK d   1      -5.842  -6.685  26.834  0.00  0.00    -0.049 A 
ATOM      9  C7  UNK d   1      -5.165  -6.587  28.070  0.00  0.00     0.008 A 
ATOM     10  C13 UNK d   1      -5.890  -6.502  29.275  0.00  0.00     0.001 A 
ATOM     11  C18 UNK d   1      -7.297  -6.514  29.253  0.00  0.00     0.000 A 
ATOM     12  C14 UNK d   1      -7.979  -6.610  28.024  0.00  0.00     0.001 A 
ATOM     13  C8  UNK d   1      -7.254  -6.695  26.821  0.00  0.00     0.008 A 
ENDBRANCH   7   8
BRANCH   7  14
ATOM     14  C4  UNK d   1      -3.857  -5.851  25.523  0.00  0.00    -0.049 A 
ATOM     15  C9  UNK d   1      -3.729  -4.861  24.523  0.00  0.00     0.008 A 
ATOM     16  C15 UNK d   1      -2.617  -3.997  24.513  0.00  0.00     0.001 A 
ATOM     17  C19 UNK d   1      -1.624  -4.114  25.506  0.00  0.00     0.000 A 
ATOM     18  C16 UNK d   1      -1.746  -5.096  26.506  0.00  0.00     0.001 A 
ATOM     19  C10 UNK d   1      -2.857  -5.960  26.516  0.00  0.00     0.008 A 
ENDBRANCH   7  14
ENDBRANCH   1   7
BRANCH   6  20
ATOM     20  S20 UNK d   1      -1.311 -10.863  25.221  0.00  0.00     0.267 S 
ATOM     21  O22 UNK d   1      -0.834 -12.037  24.474  0.00  0.00    -0.200 OA
ATOM     22  O23 UNK d   1      -0.587  -9.584  25.146  0.00  0.00    -0.200 OA
BRANCH  20  23
ATOM     23  C21 UNK d   1      -1.351 -11.333  26.935  0.00  0.00     0.121 A 
ATOM     24  S24 UNK d   1      -1.122 -10.155  28.204  0.00  0.00    -0.064 SA
ATOM     25  C26 UNK d   1      -1.300 -11.401  29.406  0.00  0.00     0.075 A 
ATOM     26 Cl28 UNK d   1      -1.209 -10.971  31.066  0.00  0.00    -0.076 Cl
ATOM     27  C27 UNK d   1      -1.499 -12.640  28.860  0.00  0.00     0.033 A 
ATOM     28  C25 UNK d   1      -1.516 -12.601  27.434  0.00  0.00     0.035 A 
ENDBRANCH  20  23
ENDBRANCH   6  20
TORSDOF 5
ENDMDL
