REMARK  4 active torsions:
REMARK  status: ('A' for Active; 'I' for Inactive)
REMARK    1  A    between atoms: N3_1  and  C5_3 
REMARK    2  A    between atoms: C2_13  and  C6_2 
REMARK    3  A    between atoms: C1_5  and  N1_10 
REMARK    4  A    between atoms: N2_20  and  C3_15 
ROOT
ATOM      1  N3  INB d   0     -52.083 -15.596  14.210  0.00  0.00    -0.244 NA
ATOM      2  C6  INB d   0     -51.306 -15.117  13.325  0.00  0.00     0.101 C 
ENDROOT
BRANCH   1   3
ATOM      3  C5  INB d   0     -51.627 -15.788  15.522  0.00  0.00     0.079 A 
ATOM      4  C4  INB d   0     -50.262 -15.624  15.871  0.00  0.00     0.042 A 
ATOM      5  C1  INB d   0     -49.811 -15.841  17.194  0.00  0.00     0.128 A 
ATOM      6  C10 INB d   0     -50.746 -16.241  18.173  0.00  0.00     0.023 A 
ATOM      7  C13 INB d   0     -52.100 -16.424  17.837  0.00  0.00    -0.001 A 
ATOM      8  C9  INB d   0     -52.544 -16.205  16.517  0.00  0.00    -0.004 A 
ATOM      9  C14 INB d   0     -54.012 -16.419  16.184  0.00  0.00     0.033 C 
BRANCH   5  10
ATOM     10  N1  INB d   0     -48.389 -15.659  17.543  0.00  0.00    -0.114 N 
ATOM     11  O3  INB d   0     -47.857 -14.586  17.272  0.00  0.00    -0.532 OA
ATOM     12  O2  INB d   0     -47.799 -16.586  18.087  0.00  0.00    -0.532 OA
ENDBRANCH   5  10
ENDBRANCH   1   3
BRANCH   2  13
ATOM     13  C2  INB d   0     -51.462 -15.215  11.847  0.00  0.00     0.046 A 
ATOM     14  C7  INB d   0     -50.604 -14.406  11.065  0.00  0.00     0.027 A 
ATOM     15  C3  INB d   0     -50.653 -14.412   9.652  0.00  0.00     0.127 A 
ATOM     16  C11 INB d   0     -51.589 -15.250   9.009  0.00  0.00     0.026 A 
ATOM     17  C12 INB d   0     -52.452 -16.059   9.766  0.00  0.00     0.029 A 
ATOM     18  C8  INB d   0     -52.400 -16.050  11.173  0.00  0.00     0.133 A 
ATOM     19  O5  INB d   0     -53.285 -16.860  11.831  0.00  0.00    -0.190 OA
BRANCH  15  20
ATOM     20  N2  INB d   0     -49.744 -13.557   8.863  0.00  0.00    -0.114 N 
ATOM     21  O4  INB d   0     -48.880 -14.101   8.181  0.00  0.00    -0.532 OA
ATOM     22  O1  INB d   0     -49.890 -12.341   8.923  0.00  0.00    -0.532 OA
ENDBRANCH  15  20
ENDBRANCH   2  13
TORSDOF 4
