@<TRIPOS>MOLECULE
./may7.pdb
 22 23 0 0 0
SMALL
GASTEIGER

@<TRIPOS>ATOM
      1  N3       -52.0830  -15.5960   14.2100 N.2     0  INB0       -0.2440
      2  C6       -51.3060  -15.1170   13.3250 C.2     0  INB0        0.1020
      3  C5       -51.6270  -15.7880   15.5220 C.ar    0  INB0        0.0790
      4  C4       -50.2620  -15.6240   15.8710 C.ar    0  INB0        0.0428
      5  C1       -49.8110  -15.8410   17.1940 C.ar    0  INB0        0.1444
      6  C10      -50.7460  -16.2410   18.1730 C.ar    0  INB0        0.0238
      7  C13      -52.1000  -16.4240   17.8370 C.ar    0  INB0       -0.0011
      8  C9       -52.5440  -16.2050   16.5170 C.ar    0  INB0       -0.0041
      9  C14      -54.0120  -16.4190   16.1840 C.3     0  INB0        0.0326
     10  N1       -48.3890  -15.6590   17.5430 N.pl3   0  INB0        0.0577
     11  O2       -47.7990  -16.5860   18.0870 O.2     0  INB0       -0.1261
     12  O3       -47.8570  -14.5860   17.2720 O.2     0  INB0       -0.1261
     13  C2       -51.4620  -15.2150   11.8470 C.ar    0  INB0        0.0597
     14  C7       -50.6040  -14.4060   11.0650 C.ar    0  INB0        0.0288
     15  C3       -50.6530  -14.4120    9.6520 C.ar    0  INB0        0.1431
     16  C11      -51.5890  -15.2500    9.0090 C.ar    0  INB0        0.0274
     17  C12      -52.4520  -16.0590    9.7660 C.ar    0  INB0        0.0438
     18  C8       -52.4000  -16.0500   11.1730 C.ar    0  INB0        0.1972
     19  O5       -53.2850  -16.8600   11.8310 O.3     0  INB0       -0.2865
     20  N2       -49.7440  -13.5570    8.8630 N.pl3   0  INB0        0.0577
     21  O1       -49.8900  -12.3410    8.9230 O.2     0  INB0       -0.1261
     22  O4       -48.8800  -14.1010    8.1810 O.2     0  INB0       -0.1261
@<TRIPOS>BOND
     1    22    20    2
     2    20    21    2
     3    20    15    1
     4    16    15   ar
     5    16    17   ar
     6    15    14   ar
     7    17    18   ar
     8    14    13   ar
     9    18    19    1
    10    18    13   ar
    11    13     2    1
    12     2     1    2
    13     1     3    1
    14     3     4   ar
    15     3     8   ar
    16     4     5   ar
    17     9     8    1
    18     8     7   ar
    19     5    10    1
    20     5     6   ar
    21    12    10    2
    22    10    11    2
    23     7     6   ar
