MODEL 1
REMARK VINA RESULT:    -7.235      0.000      0.000
REMARK INTER + INTRA:          -9.519
REMARK INTER:                  -8.927
REMARK INTRA:                  -0.593
REMARK UNBOUND:                -0.593
REMARK  4 active torsions:
REMARK  status: ('A' for Active; 'I' for Inactive)
REMARK    1  A    between atoms: N3_1  and  C5_3 
REMARK    2  A    between atoms: C2_13  and  C6_2 
REMARK    3  A    between atoms: C1_5  and  N1_10 
REMARK    4  A    between atoms: N2_20  and  C3_15 
ROOT
ATOM      1  N3  INB d   0      -4.523  -6.298  23.916  0.00  0.00    -0.244 NA
ATOM      2  C6  INB d   0      -4.044  -5.130  24.073  0.00  0.00     0.101 C 
ENDROOT
BRANCH   1   3
ATOM      3  C5  INB d   0      -4.969  -7.034  25.023  0.00  0.00     0.079 A 
ATOM      4  C4  INB d   0      -6.048  -6.591  25.830  0.00  0.00     0.042 A 
ATOM      5  C1  INB d   0      -6.475  -7.332  26.956  0.00  0.00     0.128 A 
ATOM      6  C10 INB d   0      -5.797  -8.527  27.279  0.00  0.00     0.023 A 
ATOM      7  C13 INB d   0      -4.714  -8.970  26.497  0.00  0.00    -0.001 A 
ATOM      8  C9  INB d   0      -4.293  -8.227  25.375  0.00  0.00    -0.004 A 
ATOM      9  C14 INB d   0      -3.115  -8.728  24.555  0.00  0.00     0.033 C 
BRANCH   5  10
ATOM     10  N1  INB d   0      -7.604  -6.862  27.782  0.00  0.00    -0.114 N 
ATOM     11  O3  INB d   0      -8.230  -5.876  27.402  0.00  0.00    -0.532 OA
ATOM     12  O2  INB d   0      -7.868  -7.474  28.811  0.00  0.00    -0.532 OA
ENDBRANCH   5  10
ENDBRANCH   1   3
BRANCH   2  13
ATOM     13  C2  INB d   0      -3.177  -4.381  23.121  0.00  0.00     0.046 A 
ATOM     14  C7  INB d   0      -2.728  -5.090  21.982  0.00  0.00     0.027 A 
ATOM     15  C3  INB d   0      -1.902  -4.489  21.005  0.00  0.00     0.127 A 
ATOM     16  C11 INB d   0      -1.516  -3.142  21.178  0.00  0.00     0.026 A 
ATOM     17  C12 INB d   0      -1.949  -2.421  22.302  0.00  0.00     0.029 A 
ATOM     18  C8  INB d   0      -2.771  -3.024  23.274  0.00  0.00     0.133 A 
ATOM     19  O5  INB d   0      -3.135  -2.252  24.343  0.00  0.00    -0.190 OA
BRANCH  15  20
ATOM     20  N2  INB d   0      -1.449  -5.254  19.826  0.00  0.00    -0.114 N 
ATOM     21  O4  INB d   0      -2.053  -6.282  19.534  0.00  0.00    -0.532 OA
ATOM     22  O1  INB d   0      -0.490  -4.831  19.190  0.00  0.00    -0.532 OA
ENDBRANCH  15  20
ENDBRANCH   2  13
TORSDOF 4
ENDMDL
MODEL 2
REMARK VINA RESULT:    -7.171      1.430      7.950
REMARK INTER + INTRA:          -9.440
REMARK INTER:                  -8.896
REMARK INTRA:                  -0.544
REMARK UNBOUND:                -0.593
REMARK  4 active torsions:
REMARK  status: ('A' for Active; 'I' for Inactive)
REMARK    1  A    between atoms: N3_1  and  C5_3 
REMARK    2  A    between atoms: C2_13  and  C6_2 
REMARK    3  A    between atoms: C1_5  and  N1_10 
REMARK    4  A    between atoms: N2_20  and  C3_15 
ROOT
ATOM      1  N3  INB d   0      -3.458  -4.774  24.298  0.00  0.00    -0.244 NA
ATOM      2  C6  INB d   0      -4.324  -5.693  24.154  0.00  0.00     0.101 C 
ENDROOT
BRANCH   1   3
ATOM      3  C5  INB d   0      -2.851  -4.193  23.175  0.00  0.00     0.079 A 
ATOM      4  C4  INB d   0      -2.457  -4.966  22.054  0.00  0.00     0.042 A 
ATOM      5  C1  INB d   0      -1.826  -4.371  20.936  0.00  0.00     0.128 A 
ATOM      6  C10 INB d   0      -1.578  -2.982  20.957  0.00  0.00     0.023 A 
ATOM      7  C13 INB d   0      -1.948  -2.205  22.070  0.00  0.00    -0.001 A 
ATOM      8  C9  INB d   0      -2.578  -2.803  23.180  0.00  0.00    -0.004 A 
ATOM      9  C14 INB d   0      -2.958  -1.938  24.371  0.00  0.00     0.033 C 
BRANCH   5  10
ATOM     10  N1  INB d   0      -1.429  -5.188  19.774  0.00  0.00    -0.114 N 
ATOM     11  O3  INB d   0      -2.035  -6.235  19.564  0.00  0.00    -0.532 OA
ATOM     12  O2  INB d   0      -0.509  -4.789  19.067  0.00  0.00    -0.532 OA
ENDBRANCH   5  10
ENDBRANCH   1   3
BRANCH   2  13
ATOM     13  C2  INB d   0      -4.763  -6.680  25.180  0.00  0.00     0.046 A 
ATOM     14  C7  INB d   0      -5.905  -6.334  25.942  0.00  0.00     0.027 A 
ATOM     15  C3  INB d   0      -6.421  -7.188  26.943  0.00  0.00     0.127 A 
ATOM     16  C11 INB d   0      -5.774  -8.418  27.187  0.00  0.00     0.026 A 
ATOM     17  C12 INB d   0      -4.638  -8.779  26.445  0.00  0.00     0.029 A 
ATOM     18  C8  INB d   0      -4.126  -7.926  25.448  0.00  0.00     0.133 A 
ATOM     19  O5  INB d   0      -3.010  -8.351  24.782  0.00  0.00    -0.190 OA
BRANCH  15  20
ATOM     20  N2  INB d   0      -7.615  -6.800  27.721  0.00  0.00    -0.114 N 
ATOM     21  O4  INB d   0      -7.864  -7.421  28.751  0.00  0.00    -0.532 OA
ATOM     22  O1  INB d   0      -8.306  -5.876  27.306  0.00  0.00    -0.532 OA
ENDBRANCH  15  20
ENDBRANCH   2  13
TORSDOF 4
ENDMDL
MODEL 3
REMARK VINA RESULT:    -7.133      2.247      7.503
REMARK INTER + INTRA:          -9.394
REMARK INTER:                  -8.811
REMARK INTRA:                  -0.583
REMARK UNBOUND:                -0.593
REMARK  4 active torsions:
REMARK  status: ('A' for Active; 'I' for Inactive)
REMARK    1  A    between atoms: N3_1  and  C5_3 
REMARK    2  A    between atoms: C2_13  and  C6_2 
REMARK    3  A    between atoms: C1_5  and  N1_10 
REMARK    4  A    between atoms: N2_20  and  C3_15 
ROOT
ATOM      1  N3  INB d   0      -3.804  -6.377  25.443  0.00  0.00    -0.244 NA
ATOM      2  C6  INB d   0      -5.028  -6.218  25.750  0.00  0.00     0.101 C 
ENDROOT
BRANCH   1   3
ATOM      3  C5  INB d   0      -3.302  -5.848  24.246  0.00  0.00     0.079 A 
ATOM      4  C4  INB d   0      -3.153  -4.451  24.048  0.00  0.00     0.042 A 
ATOM      5  C1  INB d   0      -2.665  -3.930  22.828  0.00  0.00     0.128 A 
ATOM      6  C10 INB d   0      -2.334  -4.828  21.790  0.00  0.00     0.023 A 
ATOM      7  C13 INB d   0      -2.493  -6.215  21.965  0.00  0.00    -0.001 A 
ATOM      8  C9  INB d   0      -2.979  -6.729  23.185  0.00  0.00    -0.004 A 
ATOM      9  C14 INB d   0      -3.147  -8.232  23.341  0.00  0.00     0.033 C 
BRANCH   5  10
ATOM     10  N1  INB d   0      -2.509  -2.475  22.641  0.00  0.00    -0.114 N 
ATOM     11  O3  INB d   0      -2.001  -2.074  21.597  0.00  0.00    -0.532 OA
ATOM     12  O2  INB d   0      -2.891  -1.728  23.535  0.00  0.00    -0.532 OA
ENDBRANCH   5  10
ENDBRANCH   1   3
BRANCH   2  13
ATOM     13  C2  INB d   0      -5.817  -7.015  26.730  0.00  0.00     0.046 A 
ATOM     14  C7  INB d   0      -5.330  -8.309  27.032  0.00  0.00     0.027 A 
ATOM     15  C3  INB d   0      -5.988  -9.161  27.948  0.00  0.00     0.127 A 
ATOM     16  C11 INB d   0      -7.166  -8.703  28.575  0.00  0.00     0.026 A 
ATOM     17  C12 INB d   0      -7.669  -7.423  28.288  0.00  0.00     0.029 A 
ATOM     18  C8  INB d   0      -7.010  -6.578  27.375  0.00  0.00     0.133 A 
ATOM     19  O5  INB d   0      -7.576  -5.353  27.145  0.00  0.00    -0.190 OA
BRANCH  15  20
ATOM     20  N2  INB d   0      -5.455 -10.506  28.243  0.00  0.00    -0.114 N 
ATOM     21  O4  INB d   0      -5.694 -11.413  27.451  0.00  0.00    -0.532 OA
ATOM     22  O1  INB d   0      -4.797 -10.660  29.267  0.00  0.00    -0.532 OA
ENDBRANCH  15  20
ENDBRANCH   2  13
TORSDOF 4
ENDMDL
MODEL 4
REMARK VINA RESULT:    -7.094      1.678      2.947
REMARK INTER + INTRA:          -9.346
REMARK INTER:                  -8.816
REMARK INTRA:                  -0.530
REMARK UNBOUND:                -0.593
REMARK  4 active torsions:
REMARK  status: ('A' for Active; 'I' for Inactive)
REMARK    1  A    between atoms: N3_1  and  C5_3 
REMARK    2  A    between atoms: C2_13  and  C6_2 
REMARK    3  A    between atoms: C1_5  and  N1_10 
REMARK    4  A    between atoms: N2_20  and  C3_15 
ROOT
ATOM      1  N3  INB d   0      -3.937  -6.935  24.655  0.00  0.00    -0.244 NA
ATOM      2  C6  INB d   0      -4.289  -5.815  24.167  0.00  0.00     0.101 C 
ENDROOT
BRANCH   1   3
ATOM      3  C5  INB d   0      -4.705  -7.540  25.660  0.00  0.00     0.079 A 
ATOM      4  C4  INB d   0      -5.813  -6.882  26.254  0.00  0.00     0.042 A 
ATOM      5  C1  INB d   0      -6.567  -7.496  27.281  0.00  0.00     0.128 A 
ATOM      6  C10 INB d   0      -6.191  -8.783  27.723  0.00  0.00     0.023 A 
ATOM      7  C13 INB d   0      -5.085  -9.440  27.155  0.00  0.00    -0.001 A 
ATOM      8  C9  INB d   0      -4.337  -8.824  26.131  0.00  0.00    -0.004 A 
ATOM      9  C14 INB d   0      -3.142  -9.557  25.543  0.00  0.00     0.033 C 
BRANCH   5  10
ATOM     10  N1  INB d   0      -7.721  -6.801  27.884  0.00  0.00    -0.114 N 
ATOM     11  O3  INB d   0      -8.186  -5.829  27.296  0.00  0.00    -0.532 OA
ATOM     12  O2  INB d   0      -8.166  -7.223  28.945  0.00  0.00    -0.532 OA
ENDBRANCH   5  10
ENDBRANCH   1   3
BRANCH   2  13
ATOM     13  C2  INB d   0      -3.430  -4.853  23.421  0.00  0.00     0.046 A 
ATOM     14  C7  INB d   0      -3.208  -3.596  24.032  0.00  0.00     0.027 A 
ATOM     15  C3  INB d   0      -2.410  -2.600  23.425  0.00  0.00     0.127 A 
ATOM     16  C11 INB d   0      -1.821  -2.873  22.172  0.00  0.00     0.026 A 
ATOM     17  C12 INB d   0      -2.031  -4.112  21.546  0.00  0.00     0.029 A 
ATOM     18  C8  INB d   0      -2.827  -5.102  22.154  0.00  0.00     0.133 A 
ATOM     19  O5  INB d   0      -2.987  -6.275  21.469  0.00  0.00    -0.190 OA
BRANCH  15  20
ATOM     20  N2  INB d   0      -2.196  -1.298  24.088  0.00  0.00    -0.114 N 
ATOM     21  O4  INB d   0      -3.182  -0.653  24.434  0.00  0.00    -0.532 OA
ATOM     22  O1  INB d   0      -1.044  -0.917  24.265  0.00  0.00    -0.532 OA
ENDBRANCH  15  20
ENDBRANCH   2  13
TORSDOF 4
ENDMDL
MODEL 5
REMARK VINA RESULT:    -7.048      2.394      7.574
REMARK INTER + INTRA:          -9.289
REMARK INTER:                  -8.784
REMARK INTRA:                  -0.505
REMARK UNBOUND:                -0.593
REMARK  4 active torsions:
REMARK  status: ('A' for Active; 'I' for Inactive)
REMARK    1  A    between atoms: N3_1  and  C5_3 
REMARK    2  A    between atoms: C2_13  and  C6_2 
REMARK    3  A    between atoms: C1_5  and  N1_10 
REMARK    4  A    between atoms: N2_20  and  C3_15 
ROOT
ATOM      1  N3  INB d   0      -3.144  -5.778  24.012  0.00  0.00    -0.244 NA
ATOM      2  C6  INB d   0      -3.483  -5.756  25.237  0.00  0.00     0.101 C 
ENDROOT
BRANCH   1   3
ATOM      3  C5  INB d   0      -2.766  -4.594  23.362  0.00  0.00     0.079 A 
ATOM      4  C4  INB d   0      -2.666  -3.360  24.054  0.00  0.00     0.042 A 
ATOM      5  C1  INB d   0      -2.304  -2.169  23.383  0.00  0.00     0.128 A 
ATOM      6  C10 INB d   0      -2.052  -2.221  21.995  0.00  0.00     0.023 A 
ATOM      7  C13 INB d   0      -2.164  -3.436  21.293  0.00  0.00    -0.001 A 
ATOM      8  C9  INB d   0      -2.524  -4.620  21.967  0.00  0.00    -0.004 A 
ATOM      9  C14 INB d   0      -2.644  -5.914  21.179  0.00  0.00     0.033 C 
BRANCH   5  10
ATOM     10  N1  INB d   0      -2.198  -0.894  24.118  0.00  0.00    -0.114 N 
ATOM     11  O3  INB d   0      -3.183  -0.493  24.731  0.00  0.00    -0.532 OA
ATOM     12  O2  INB d   0      -1.132  -0.289  24.084  0.00  0.00    -0.532 OA
ENDBRANCH   5  10
ENDBRANCH   1   3
BRANCH   2  13
ATOM     13  C2  INB d   0      -4.275  -6.785  25.966  0.00  0.00     0.046 A 
ATOM     14  C7  INB d   0      -5.487  -6.351  26.555  0.00  0.00     0.027 A 
ATOM     15  C3  INB d   0      -6.328  -7.233  27.271  0.00  0.00     0.127 A 
ATOM     16  C11 INB d   0      -5.942  -8.584  27.401  0.00  0.00     0.026 A 
ATOM     17  C12 INB d   0      -4.742  -9.035  26.827  0.00  0.00     0.029 A 
ATOM     18  C8  INB d   0      -3.907  -8.154  26.115  0.00  0.00     0.133 A 
ATOM     19  O5  INB d   0      -2.751  -8.675  25.599  0.00  0.00    -0.190 OA
BRANCH  15  20
ATOM     20  N2  INB d   0      -7.587  -6.751  27.873  0.00  0.00    -0.114 N 
ATOM     21  O4  INB d   0      -8.165  -5.810  27.337  0.00  0.00    -0.532 OA
ATOM     22  O1  INB d   0      -8.001  -7.310  28.883  0.00  0.00    -0.532 OA
ENDBRANCH  15  20
ENDBRANCH   2  13
TORSDOF 4
ENDMDL
MODEL 6
REMARK VINA RESULT:    -6.891      4.074      6.569
REMARK INTER + INTRA:          -9.095
REMARK INTER:                  -8.492
REMARK INTRA:                  -0.603
REMARK UNBOUND:                -0.593
REMARK  4 active torsions:
REMARK  status: ('A' for Active; 'I' for Inactive)
REMARK    1  A    between atoms: N3_1  and  C5_3 
REMARK    2  A    between atoms: C2_13  and  C6_2 
REMARK    3  A    between atoms: C1_5  and  N1_10 
REMARK    4  A    between atoms: N2_20  and  C3_15 
ROOT
ATOM      1  N3  INB d   0      -5.080 -10.328  27.332  0.00  0.00    -0.244 NA
ATOM      2  C6  INB d   0      -5.263  -9.176  27.839  0.00  0.00     0.101 C 
ENDROOT
BRANCH   1   3
ATOM      3  C5  INB d   0      -4.096 -11.181  27.853  0.00  0.00     0.079 A 
ATOM      4  C4  INB d   0      -4.138 -11.639  29.195  0.00  0.00     0.042 A 
ATOM      5  C1  INB d   0      -3.128 -12.483  29.714  0.00  0.00     0.128 A 
ATOM      6  C10 INB d   0      -2.058 -12.858  28.874  0.00  0.00     0.023 A 
ATOM      7  C13 INB d   0      -1.995 -12.397  27.546  0.00  0.00    -0.001 A 
ATOM      8  C9  INB d   0      -3.005 -11.557  27.033  0.00  0.00    -0.004 A 
ATOM      9  C14 INB d   0      -2.904 -11.069  25.596  0.00  0.00     0.033 C 
BRANCH   5  10
ATOM     10  N1  INB d   0      -3.189 -12.957  31.110  0.00  0.00    -0.114 N 
ATOM     11  O3  INB d   0      -2.562 -13.970  31.407  0.00  0.00    -0.532 OA
ATOM     12  O2  INB d   0      -3.863 -12.321  31.913  0.00  0.00    -0.532 OA
ENDBRANCH   5  10
ENDBRANCH   1   3
BRANCH   2  13
ATOM     13  C2  INB d   0      -5.942  -8.014  27.202  0.00  0.00     0.046 A 
ATOM     14  C7  INB d   0      -5.347  -7.500  26.026  0.00  0.00     0.027 A 
ATOM     15  C3  INB d   0      -5.898  -6.401  25.328  0.00  0.00     0.127 A 
ATOM     16  C11 INB d   0      -7.076  -5.803  25.825  0.00  0.00     0.026 A 
ATOM     17  C12 INB d   0      -7.681  -6.295  26.992  0.00  0.00     0.029 A 
ATOM     18  C8  INB d   0      -7.129  -7.390  27.685  0.00  0.00     0.133 A 
ATOM     19  O5  INB d   0      -7.777  -7.796  28.819  0.00  0.00    -0.190 OA
BRANCH  15  20
ATOM     20  N2  INB d   0      -5.255  -5.887  24.102  0.00  0.00    -0.114 N 
ATOM     21  O4  INB d   0      -4.804  -4.745  24.117  0.00  0.00    -0.532 OA
ATOM     22  O1  INB d   0      -5.198  -6.622  23.122  0.00  0.00    -0.532 OA
ENDBRANCH  15  20
ENDBRANCH   2  13
TORSDOF 4
ENDMDL
MODEL 7
REMARK VINA RESULT:    -6.822      2.070      8.121
REMARK INTER + INTRA:          -9.009
REMARK INTER:                  -8.436
REMARK INTRA:                  -0.573
REMARK UNBOUND:                -0.593
REMARK  4 active torsions:
REMARK  status: ('A' for Active; 'I' for Inactive)
REMARK    1  A    between atoms: N3_1  and  C5_3 
REMARK    2  A    between atoms: C2_13  and  C6_2 
REMARK    3  A    between atoms: C1_5  and  N1_10 
REMARK    4  A    between atoms: N2_20  and  C3_15 
ROOT
ATOM      1  N3  INB d   0      -3.895  -7.394  23.454  0.00  0.00    -0.244 NA
ATOM      2  C6  INB d   0      -3.170  -8.244  24.061  0.00  0.00     0.101 C 
ENDROOT
BRANCH   1   3
ATOM      3  C5  INB d   0      -3.317  -6.251  22.884  0.00  0.00     0.079 A 
ATOM      4  C4  INB d   0      -2.613  -6.303  21.654  0.00  0.00     0.042 A 
ATOM      5  C1  INB d   0      -2.016  -5.147  21.099  0.00  0.00     0.128 A 
ATOM      6  C10 INB d   0      -2.121  -3.926  21.801  0.00  0.00     0.023 A 
ATOM      7  C13 INB d   0      -2.802  -3.863  23.030  0.00  0.00    -0.001 A 
ATOM      8  C9  INB d   0      -3.396  -5.019  23.577  0.00  0.00    -0.004 A 
ATOM      9  C14 INB d   0      -4.118  -4.920  24.912  0.00  0.00     0.033 C 
BRANCH   5  10
ATOM     10  N1  INB d   0      -1.293  -5.216  19.815  0.00  0.00    -0.114 N 
ATOM     11  O3  INB d   0      -1.698  -6.000  18.961  0.00  0.00    -0.532 OA
ATOM     12  O2  INB d   0      -0.319  -4.489  19.655  0.00  0.00    -0.532 OA
ENDBRANCH   5  10
ENDBRANCH   1   3
BRANCH   2  13
ATOM     13  C2  INB d   0      -3.622  -9.267  25.045  0.00  0.00     0.046 A 
ATOM     14  C7  INB d   0      -4.526  -8.830  26.042  0.00  0.00     0.027 A 
ATOM     15  C3  INB d   0      -5.029  -9.707  27.031  0.00  0.00     0.127 A 
ATOM     16  C11 INB d   0      -4.611 -11.055  27.019  0.00  0.00     0.026 A 
ATOM     17  C12 INB d   0      -3.712 -11.509  26.039  0.00  0.00     0.029 A 
ATOM     18  C8  INB d   0      -3.214 -10.632  25.057  0.00  0.00     0.133 A 
ATOM     19  O5  INB d   0      -2.333 -11.155  24.149  0.00  0.00    -0.190 OA
BRANCH  15  20
ATOM     20  N2  INB d   0      -5.971  -9.222  28.059  0.00  0.00    -0.114 N 
ATOM     21  O4  INB d   0      -5.704  -8.178  28.647  0.00  0.00    -0.532 OA
ATOM     22  O1  INB d   0      -6.980  -9.883  28.281  0.00  0.00    -0.532 OA
ENDBRANCH  15  20
ENDBRANCH   2  13
TORSDOF 4
ENDMDL
MODEL 8
REMARK VINA RESULT:    -6.793      2.868      4.057
REMARK INTER + INTRA:          -8.973
REMARK INTER:                  -8.441
REMARK INTRA:                  -0.533
REMARK UNBOUND:                -0.593
REMARK  4 active torsions:
REMARK  status: ('A' for Active; 'I' for Inactive)
REMARK    1  A    between atoms: N3_1  and  C5_3 
REMARK    2  A    between atoms: C2_13  and  C6_2 
REMARK    3  A    between atoms: C1_5  and  N1_10 
REMARK    4  A    between atoms: N2_20  and  C3_15 
ROOT
ATOM      1  N3  INB d   0      -5.230  -6.765  25.622  0.00  0.00    -0.244 NA
ATOM      2  C6  INB d   0      -4.001  -6.488  25.453  0.00  0.00     0.101 C 
ENDROOT
BRANCH   1   3
ATOM      3  C5  INB d   0      -5.615  -7.725  26.568  0.00  0.00     0.079 A 
ATOM      4  C4  INB d   0      -5.042  -9.022  26.594  0.00  0.00     0.042 A 
ATOM      5  C1  INB d   0      -5.454  -9.988  27.541  0.00  0.00     0.128 A 
ATOM      6  C10 INB d   0      -6.466  -9.646  28.464  0.00  0.00     0.023 A 
ATOM      7  C13 INB d   0      -7.055  -8.369  28.438  0.00  0.00    -0.001 A 
ATOM      8  C9  INB d   0      -6.640  -7.409  27.493  0.00  0.00    -0.004 A 
ATOM      9  C14 INB d   0      -7.302  -6.041  27.487  0.00  0.00     0.033 C 
BRANCH   5  10
ATOM     10  N1  INB d   0      -4.842 -11.331  27.559  0.00  0.00    -0.114 N 
ATOM     11  O3  INB d   0      -3.789 -11.481  28.172  0.00  0.00    -0.532 OA
ATOM     12  O2  INB d   0      -5.410 -12.239  26.962  0.00  0.00    -0.532 OA
ENDBRANCH   5  10
ENDBRANCH   1   3
BRANCH   2  13
ATOM     13  C2  INB d   0      -3.384  -5.830  24.267  0.00  0.00     0.046 A 
ATOM     14  C7  INB d   0      -3.340  -4.416  24.281  0.00  0.00     0.027 A 
ATOM     15  C3  INB d   0      -2.777  -3.675  23.216  0.00  0.00     0.127 A 
ATOM     16  C11 INB d   0      -2.249  -4.373  22.109  0.00  0.00     0.026 A 
ATOM     17  C12 INB d   0      -2.286  -5.777  22.073  0.00  0.00     0.029 A 
ATOM     18  C8  INB d   0      -2.847  -6.510  23.136  0.00  0.00     0.133 A 
ATOM     19  O5  INB d   0      -2.852  -7.873  23.014  0.00  0.00    -0.190 OA
BRANCH  15  20
ATOM     20  N2  INB d   0      -2.744  -2.200  23.259  0.00  0.00    -0.114 N 
ATOM     21  O4  INB d   0      -3.121  -1.640  24.284  0.00  0.00    -0.532 OA
ATOM     22  O1  INB d   0      -2.343  -1.597  22.269  0.00  0.00    -0.532 OA
ENDBRANCH  15  20
ENDBRANCH   2  13
TORSDOF 4
ENDMDL
MODEL 9
REMARK VINA RESULT:    -6.559      2.636      7.668
REMARK INTER + INTRA:          -8.686
REMARK INTER:                  -8.153
REMARK INTRA:                  -0.533
REMARK UNBOUND:                -0.593
REMARK  4 active torsions:
REMARK  status: ('A' for Active; 'I' for Inactive)
REMARK    1  A    between atoms: N3_1  and  C5_3 
REMARK    2  A    between atoms: C2_13  and  C6_2 
REMARK    3  A    between atoms: C1_5  and  N1_10 
REMARK    4  A    between atoms: N2_20  and  C3_15 
ROOT
ATOM      1  N3  INB d   0      -3.613  -5.721  26.496  0.00  0.00    -0.244 NA
ATOM      2  C6  INB d   0      -4.755  -6.178  26.174  0.00  0.00     0.101 C 
ENDROOT
BRANCH   1   3
ATOM      3  C5  INB d   0      -2.730  -5.263  25.507  0.00  0.00     0.079 A 
ATOM      4  C4  INB d   0      -3.080  -5.266  24.133  0.00  0.00     0.042 A 
ATOM      5  C1  INB d   0      -2.173  -4.822  23.143  0.00  0.00     0.128 A 
ATOM      6  C10 INB d   0      -0.893  -4.381  23.544  0.00  0.00     0.023 A 
ATOM      7  C13 INB d   0      -0.527  -4.389  24.902  0.00  0.00    -0.001 A 
ATOM      8  C9  INB d   0      -1.436  -4.832  25.884  0.00  0.00    -0.004 A 
ATOM      9  C14 INB d   0      -1.007  -4.836  27.343  0.00  0.00     0.033 C 
BRANCH   5  10
ATOM     10  N1  INB d   0      -2.554  -4.824  21.717  0.00  0.00    -0.114 N 
ATOM     11  O3  INB d   0      -3.141  -5.808  21.275  0.00  0.00    -0.532 OA
ATOM     12  O2  INB d   0      -2.269  -3.846  21.036  0.00  0.00    -0.532 OA
ENDBRANCH   5  10
ENDBRANCH   1   3
BRANCH   2  13
ATOM     13  C2  INB d   0      -5.635  -7.053  26.998  0.00  0.00     0.046 A 
ATOM     14  C7  INB d   0      -5.164  -8.362  27.255  0.00  0.00     0.027 A 
ATOM     15  C3  INB d   0      -5.906  -9.286  28.026  0.00  0.00     0.127 A 
ATOM     16  C11 INB d   0      -7.154  -8.885  28.550  0.00  0.00     0.026 A 
ATOM     17  C12 INB d   0      -7.642  -7.591  28.304  0.00  0.00     0.029 A 
ATOM     18  C8  INB d   0      -6.899  -6.674  27.536  0.00  0.00     0.133 A 
ATOM     19  O5  INB d   0      -7.455  -5.440  27.336  0.00  0.00    -0.190 OA
BRANCH  15  20
ATOM     20  N2  INB d   0      -5.387 -10.645  28.278  0.00  0.00    -0.114 N 
ATOM     21  O4  INB d   0      -4.786 -10.852  29.328  0.00  0.00    -0.532 OA
ATOM     22  O1  INB d   0      -5.579 -11.508  27.428  0.00  0.00    -0.532 OA
ENDBRANCH  15  20
ENDBRANCH   2  13
TORSDOF 4
ENDMDL
MODEL 10
REMARK VINA RESULT:    -6.439      4.082      8.579
REMARK INTER + INTRA:          -8.537
REMARK INTER:                  -7.994
REMARK INTRA:                  -0.543
REMARK UNBOUND:                -0.593
REMARK  4 active torsions:
REMARK  status: ('A' for Active; 'I' for Inactive)
REMARK    1  A    between atoms: N3_1  and  C5_3 
REMARK    2  A    between atoms: C2_13  and  C6_2 
REMARK    3  A    between atoms: C1_5  and  N1_10 
REMARK    4  A    between atoms: N2_20  and  C3_15 
ROOT
ATOM      1  N3  INB d   0      -5.300  -9.000  27.562  0.00  0.00    -0.244 NA
ATOM      2  C6  INB d   0      -4.492  -9.855  27.081  0.00  0.00     0.101 C 
ENDROOT
BRANCH   1   3
ATOM      3  C5  INB d   0      -5.699  -7.895  26.796  0.00  0.00     0.079 A 
ATOM      4  C4  INB d   0      -5.023  -7.527  25.605  0.00  0.00     0.042 A 
ATOM      5  C1  INB d   0      -5.422  -6.398  24.853  0.00  0.00     0.128 A 
ATOM      6  C10 INB d   0      -6.508  -5.623  25.315  0.00  0.00     0.023 A 
ATOM      7  C13 INB d   0      -7.177  -5.966  26.504  0.00  0.00    -0.001 A 
ATOM      8  C9  INB d   0      -6.775  -7.094  27.249  0.00  0.00    -0.004 A 
ATOM      9  C14 INB d   0      -7.514  -7.434  28.534  0.00  0.00     0.033 C 
BRANCH   5  10
ATOM     10  N1  INB d   0      -4.713  -6.032  23.612  0.00  0.00    -0.114 N 
ATOM     11  O3  INB d   0      -3.822  -5.190  23.678  0.00  0.00    -0.532 OA
ATOM     12  O2  INB d   0      -5.043  -6.584  22.567  0.00  0.00    -0.532 OA
ENDBRANCH   5  10
ENDBRANCH   1   3
BRANCH   2  13
ATOM     13  C2  INB d   0      -3.663 -10.832  27.840  0.00  0.00     0.046 A 
ATOM     14  C7  INB d   0      -3.809 -10.826  29.248  0.00  0.00     0.027 A 
ATOM     15  C3  INB d   0      -3.080 -11.708  30.079  0.00  0.00     0.127 A 
ATOM     16  C11 INB d   0      -2.180 -12.615  29.480  0.00  0.00     0.026 A 
ATOM     17  C12 INB d   0      -2.018 -12.636  28.086  0.00  0.00     0.029 A 
ATOM     18  C8  INB d   0      -2.746 -11.757  27.262  0.00  0.00     0.133 A 
ATOM     19  O5  INB d   0      -2.517 -11.837  25.915  0.00  0.00    -0.190 OA
BRANCH  15  20
ATOM     20  N2  INB d   0      -3.254 -11.679  31.544  0.00  0.00    -0.114 N 
ATOM     21  O4  INB d   0      -2.926 -10.661  32.149  0.00  0.00    -0.532 OA
ATOM     22  O1  INB d   0      -3.717 -12.671  32.095  0.00  0.00    -0.532 OA
ENDBRANCH  15  20
ENDBRANCH   2  13
TORSDOF 4
ENDMDL
