@<TRIPOS>MOLECULE
./may8.pdb
 31 33 0 0 0
SMALL
GASTEIGER

@<TRIPOS>ATOM
      1  C1       -51.1800  -15.9680   15.0030 C.ar    0  INB0        0.0873
      2  C2       -52.3530  -15.9550   15.7500 C.ar    0  INB0        0.0958
      3  S1       -49.7440  -16.0820   15.9970 S.2     0  INB0       -0.0690
      4  C3       -50.6780  -16.1290   17.4720 C.ar    0  INB0        0.0641
      5  C4       -52.0780  -16.0600   17.1860 C.ar    0  INB0        0.0169
      6  C5       -50.1730  -16.2280   18.7860 C.ar    0  INB0        0.1335
      7  C7       -51.0610  -16.2610   19.8830 C.ar    0  INB0       -0.0090
      8  C9       -52.9330  -16.1140   18.3200 C.ar    0  INB0        0.0006
      9  C11      -52.4450  -16.2100   19.6340 C.ar    0  INB0       -0.0033
     10  N1       -51.1230  -15.8990   13.6410 N.am    0  INB0       -0.2753
     11  C6       -50.8200  -14.8720   12.8210 C.2     0  INB0        0.2498
     12  O1       -50.2710  -13.8250   13.1610 O.2     0  INB0       -0.2698
     13  H1       -51.3780  -16.7570   13.1710 H       0  INB0        0.1556
     14  C12      -51.1420  -15.1180   11.3740 C.ar    0  INB0        0.0537
     15  C13      -50.5370  -14.3240   10.3730 C.ar    0  INB0        0.0045
     16  C20      -50.8430  -14.5300    9.0150 C.ar    0  INB0        0.0001
     17  C21      -51.7640  -15.5270    8.6430 C.ar    0  INB0        0.0000
     18  C19      -52.3830  -16.3140    9.6320 C.ar    0  INB0        0.0001
     19  C14      -52.0770  -16.1090   10.9910 C.ar    0  INB0        0.0045
     20  C8       -53.6790  -15.8470   15.1160 C.2     0  INB0        0.3429
     21  O2       -54.4970  -14.9500   15.3370 O.2     0  INB0       -0.2448
     22  O4       -53.9400  -16.8550   14.2660 O.3     0  INB0       -0.4454
     23  C17      -54.8830  -16.6850   13.2200 C.3     0  INB0        0.2089
     24  C18      -55.3390  -18.0610   12.7280 C.3     0  INB0        0.0513
     25  O3       -48.8190  -16.2850   18.9720 O.3     0  INB0       -0.5054
     26  H6       -48.3160  -16.2990   18.1740 H       0  INB0        0.2922
     27  C10      -50.5700  -16.3540   21.3220 C.3     0  INB0       -0.0470
     28  N2       -50.1320  -15.0400   21.8560 N.4     0  INB0        0.3869
     29  C15      -50.6580  -14.7900   23.2160 C.3     0  INB0       -0.1003
     30  C16      -48.6660  -14.8330   21.7900 C.3     0  INB0       -0.1003
     31  H23      -50.5470  -14.3380   21.2600 H       0  INB0       -0.0794
@<TRIPOS>BOND
     1    17    16   ar
     2    17    18   ar
     3    16    15   ar
     4    18    19   ar
     5    15    14   ar
     6    19    14   ar
     7    14    11    1
     8    24    23    1
     9    11    12    2
    10    11    10   am
    11    13    10    1
    12    23    22    1
    13    10     1    1
    14    22    20    1
    15     1     2   ar
    16     1     3   ar
    17    20    21    2
    18    20     2    1
    19     2     5   ar
    20     3     4   ar
    21     5     4   ar
    22     5     8   ar
    23     4     6   ar
    24    26    25    1
    25     8     9   ar
    26     6    25    1
    27     6     7   ar
    28     9     7   ar
    29     7    27    1
    30    31    28    1
    31    27    28    1
    32    30    28    1
    33    28    29    1
