MODEL 1
REMARK VINA RESULT:    -6.888      0.000      0.000
REMARK INTER + INTRA:         -11.454
REMARK INTER:                  -9.908
REMARK INTRA:                  -1.546
REMARK UNBOUND:                -1.546
REMARK  8 active torsions:
REMARK  status: ('A' for Active; 'I' for Inactive)
REMARK    1  A    between atoms: N1_10  and  C1_1 
REMARK    2  A    between atoms: C8_20  and  C2_2 
REMARK    3  A    between atoms: C5_6  and  O3_25 
REMARK    4  A    between atoms: C7_7  and  C10_27 
REMARK       I    between atoms: C6_11  and  N1_10 
REMARK    5  A    between atoms: C12_14  and  C6_11 
REMARK    6  A    between atoms: O4_22  and  C8_20 
REMARK    7  A    between atoms: C17_23  and  O4_22 
REMARK    8  A    between atoms: C10_27  and  N2_28 
ROOT
ATOM      1  C1  INB d   0      -3.560  -6.559  25.317  0.00  0.00     0.095 A 
ATOM      2  C2  INB d   0      -4.769  -7.064  25.784  0.00  0.00     0.086 A 
ATOM      3  S1  INB d   0      -2.205  -7.610  25.667  0.00  0.00    -0.068 SA
ATOM      4  C3  INB d   0      -3.227  -8.789  26.453  0.00  0.00     0.053 A 
ATOM      5  C4  INB d   0      -4.593  -8.365  26.436  0.00  0.00     0.015 A 
ATOM      6  C5  INB d   0      -2.814 -10.007  27.034  0.00  0.00     0.093 A 
ATOM      7  C7  INB d   0      -3.766 -10.862  27.631  0.00  0.00     0.031 A 
ATOM      8  C9  INB d   0      -5.516  -9.266  27.033  0.00  0.00     0.001 A 
ATOM      9  C11 INB d   0      -5.120 -10.481  27.617  0.00  0.00    -0.000 A 
ENDROOT
BRANCH   1  10
ATOM     10  N1  INB d   0      -3.414  -5.374  24.655  0.00  0.00    -0.316 N 
ATOM     11  C6  INB d   0      -3.250  -5.110  23.343  0.00  0.00     0.258 C 
ATOM     12  O1  INB d   0      -3.458  -5.901  22.424  0.00  0.00    -0.267 OA
ATOM     13  H1  INB d   0      -3.401  -4.562  25.257  0.00  0.00     0.169 HD
BRANCH  11  14
ATOM     14  C12 INB d   0      -2.844  -3.695  23.041  0.00  0.00     0.056 A 
ATOM     15  C13 INB d   0      -3.202  -2.655  23.929  0.00  0.00     0.005 A 
ATOM     16  C20 INB d   0      -2.846  -1.323  23.650  0.00  0.00     0.000 A 
ATOM     17  C21 INB d   0      -2.134  -1.014  22.476  0.00  0.00     0.000 A 
ATOM     18  C19 INB d   0      -1.784  -2.040  21.578  0.00  0.00     0.000 A 
ATOM     19  C14 INB d   0      -2.140  -3.373  21.856  0.00  0.00     0.005 A 
ENDBRANCH  11  14
ENDBRANCH   1  10
BRANCH   2  20
ATOM     20  C8  INB d   0      -6.037  -6.333  25.612  0.00  0.00     0.298 C 
ATOM     21  O2  INB d   0      -6.607  -6.150  24.533  0.00  0.00    -0.259 OA
BRANCH  20  22
ATOM     22  O4  INB d   0      -6.523  -5.845  26.766  0.00  0.00    -0.298 OA
BRANCH  22  23
ATOM     23  C17 INB d   0      -7.694  -6.400  27.342  0.00  0.00     0.152 C 
ATOM     24  C18 INB d   0      -7.445  -6.662  28.830  0.00  0.00     0.035 C 
ENDBRANCH  22  23
ENDBRANCH  20  22
ENDBRANCH   2  20
BRANCH   6  25
ATOM     25  O3  INB d   0      -1.486 -10.335  27.012  0.00  0.00    -0.359 OA
ATOM     26  H6  INB d   0      -1.116 -10.519  27.859  0.00  0.00     0.217 HD
ENDBRANCH   6  25
BRANCH   7  27
ATOM     27  C10 INB d   0      -3.374 -12.182  28.284  0.00  0.00     0.242 C 
BRANCH  27  28
ATOM     28  N2  INB d   0      -2.705 -11.988  29.595  0.00  0.00    -0.018 N 
ATOM     29  H23 INB d   0      -2.365 -11.036  29.603  0.00  0.00     0.284 HD
ATOM     30  C16 INB d   0      -1.521 -12.857  29.789  0.00  0.00     0.246 C 
ATOM     31  C15 INB d   0      -3.654 -12.096  30.724  0.00  0.00     0.246 C 
ENDBRANCH  27  28
ENDBRANCH   7  27
TORSDOF 8
ENDMDL
MODEL 2
REMARK VINA RESULT:    -6.737      1.832      8.349
REMARK INTER + INTRA:         -11.236
REMARK INTER:                  -9.658
REMARK INTRA:                  -1.578
REMARK UNBOUND:                -1.546
REMARK  8 active torsions:
REMARK  status: ('A' for Active; 'I' for Inactive)
REMARK    1  A    between atoms: N1_10  and  C1_1 
REMARK    2  A    between atoms: C8_20  and  C2_2 
REMARK    3  A    between atoms: C5_6  and  O3_25 
REMARK    4  A    between atoms: C7_7  and  C10_27 
REMARK       I    between atoms: C6_11  and  N1_10 
REMARK    5  A    between atoms: C12_14  and  C6_11 
REMARK    6  A    between atoms: O4_22  and  C8_20 
REMARK    7  A    between atoms: C17_23  and  O4_22 
REMARK    8  A    between atoms: C10_27  and  N2_28 
ROOT
ATOM      1  C1  INB d   0      -2.908  -9.735  27.047  0.00  0.00     0.095 A 
ATOM      2  C2  INB d   0      -4.184  -9.209  26.876  0.00  0.00     0.086 A 
ATOM      3  S1  INB d   0      -1.748  -9.087  25.908  0.00  0.00    -0.068 SA
ATOM      4  C3  INB d   0      -2.947  -8.064  25.155  0.00  0.00     0.053 A 
ATOM      5  C4  INB d   0      -4.220  -8.227  25.788  0.00  0.00     0.015 A 
ATOM      6  C5  INB d   0      -2.740  -7.176  24.078  0.00  0.00     0.093 A 
ATOM      7  C7  INB d   0      -3.815  -6.407  23.581  0.00  0.00     0.031 A 
ATOM      8  C9  INB d   0      -5.266  -7.420  25.265  0.00  0.00     0.001 A 
ATOM      9  C11 INB d   0      -5.076  -6.534  24.191  0.00  0.00    -0.000 A 
ENDROOT
BRANCH   1  10
ATOM     10  N1  INB d   0      -2.567 -10.658  27.993  0.00  0.00    -0.316 N 
ATOM     11  C6  INB d   0      -2.457 -12.000  27.917  0.00  0.00     0.258 C 
ATOM     12  O1  INB d   0      -2.398 -12.654  26.876  0.00  0.00    -0.267 OA
ATOM     13  H1  INB d   0      -2.394 -10.269  28.910  0.00  0.00     0.169 HD
BRANCH  11  14
ATOM     14  C12 INB d   0      -2.332 -12.689  29.247  0.00  0.00     0.056 A 
ATOM     15  C13 INB d   0      -3.397 -12.627  30.174  0.00  0.00     0.005 A 
ATOM     16  C20 INB d   0      -3.288 -13.251  31.431  0.00  0.00     0.000 A 
ATOM     17  C21 INB d   0      -2.108 -13.936  31.778  0.00  0.00     0.000 A 
ATOM     18  C19 INB d   0      -1.037 -13.992  30.868  0.00  0.00     0.000 A 
ATOM     19  C14 INB d   0      -1.145 -13.369  29.610  0.00  0.00     0.005 A 
ENDBRANCH  11  14
ENDBRANCH   1  10
BRANCH   2  20
ATOM     20  C8  INB d   0      -5.319  -9.628  27.717  0.00  0.00     0.298 C 
ATOM     21  O2  INB d   0      -5.864 -10.734  27.669  0.00  0.00    -0.259 OA
BRANCH  20  22
ATOM     22  O4  INB d   0      -5.739  -8.663  28.553  0.00  0.00    -0.298 OA
BRANCH  22  23
ATOM     23  C17 INB d   0      -7.075  -8.192  28.490  0.00  0.00     0.152 C 
ATOM     24  C18 INB d   0      -7.102  -6.709  28.869  0.00  0.00     0.035 C 
ENDBRANCH  22  23
ENDBRANCH  20  22
ENDBRANCH   2  20
BRANCH   6  25
ATOM     25  O3  INB d   0      -1.491  -7.083  23.527  0.00  0.00    -0.359 OA
ATOM     26  H6  INB d   0      -0.966  -6.378  23.869  0.00  0.00     0.217 HD
ENDBRANCH   6  25
BRANCH   7  27
ATOM     27  C10 INB d   0      -3.650  -5.444  22.412  0.00  0.00     0.242 C 
BRANCH  27  28
ATOM     28  N2  INB d   0      -2.630  -4.399  22.679  0.00  0.00    -0.018 N 
ATOM     29  H23 INB d   0      -1.825  -4.878  23.058  0.00  0.00     0.284 HD
ATOM     30  C16 INB d   0      -3.049  -3.409  23.699  0.00  0.00     0.246 C 
ATOM     31  C15 INB d   0      -2.170  -3.741  21.436  0.00  0.00     0.246 C 
ENDBRANCH  27  28
ENDBRANCH   7  27
TORSDOF 8
ENDMDL
MODEL 3
REMARK VINA RESULT:    -6.424      1.870      8.245
REMARK INTER + INTRA:         -10.787
REMARK INTER:                  -9.228
REMARK INTRA:                  -1.559
REMARK UNBOUND:                -1.546
REMARK  8 active torsions:
REMARK  status: ('A' for Active; 'I' for Inactive)
REMARK    1  A    between atoms: N1_10  and  C1_1 
REMARK    2  A    between atoms: C8_20  and  C2_2 
REMARK    3  A    between atoms: C5_6  and  O3_25 
REMARK    4  A    between atoms: C7_7  and  C10_27 
REMARK       I    between atoms: C6_11  and  N1_10 
REMARK    5  A    between atoms: C12_14  and  C6_11 
REMARK    6  A    between atoms: O4_22  and  C8_20 
REMARK    7  A    between atoms: C17_23  and  O4_22 
REMARK    8  A    between atoms: C10_27  and  N2_28 
ROOT
ATOM      1  C1  INB d   0      -2.774  -9.110  27.078  0.00  0.00     0.095 A 
ATOM      2  C2  INB d   0      -4.016  -8.517  26.875  0.00  0.00     0.086 A 
ATOM      3  S1  INB d   0      -1.506  -8.372  26.124  0.00  0.00    -0.068 SA
ATOM      4  C3  INB d   0      -2.607  -7.216  25.416  0.00  0.00     0.053 A 
ATOM      5  C4  INB d   0      -3.932  -7.407  25.921  0.00  0.00     0.015 A 
ATOM      6  C5  INB d   0      -2.286  -6.211  24.480  0.00  0.00     0.093 A 
ATOM      7  C7  INB d   0      -3.292  -5.343  24.003  0.00  0.00     0.031 A 
ATOM      8  C9  INB d   0      -4.907  -6.499  25.425  0.00  0.00     0.001 A 
ATOM      9  C11 INB d   0      -4.603  -5.495  24.491  0.00  0.00    -0.000 A 
ENDROOT
BRANCH   1  10
ATOM     10  N1  INB d   0      -2.540 -10.157  27.922  0.00  0.00    -0.316 N 
ATOM     11  C6  INB d   0      -2.594 -11.488  27.713  0.00  0.00     0.258 C 
ATOM     12  O1  INB d   0      -2.621 -12.038  26.613  0.00  0.00    -0.267 OA
ATOM     13  H1  INB d   0      -2.315  -9.884  28.869  0.00  0.00     0.169 HD
BRANCH  11  14
ATOM     14  C12 INB d   0      -2.543 -12.315  28.967  0.00  0.00     0.056 A 
ATOM     15  C13 INB d   0      -3.666 -12.364  29.824  0.00  0.00     0.005 A 
ATOM     16  C20 INB d   0      -3.627 -13.118  31.011  0.00  0.00     0.000 A 
ATOM     17  C21 INB d   0      -2.461 -13.827  31.358  0.00  0.00     0.000 A 
ATOM     18  C19 INB d   0      -1.333 -13.774  30.519  0.00  0.00     0.000 A 
ATOM     19  C14 INB d   0      -1.371 -13.020  29.331  0.00  0.00     0.005 A 
ENDBRANCH  11  14
ENDBRANCH   1  10
BRANCH   2  20
ATOM     20  C8  INB d   0      -5.228  -8.992  27.565  0.00  0.00     0.298 C 
ATOM     21  O2  INB d   0      -5.762 -10.089  27.380  0.00  0.00    -0.259 OA
BRANCH  20  22
ATOM     22  O4  INB d   0      -5.734  -8.089  28.423  0.00  0.00    -0.298 OA
BRANCH  22  23
ATOM     23  C17 INB d   0      -7.137  -7.968  28.592  0.00  0.00     0.152 C 
ATOM     24  C18 INB d   0      -7.599  -6.633  28.004  0.00  0.00     0.035 C 
ENDBRANCH  22  23
ENDBRANCH  20  22
ENDBRANCH   2  20
BRANCH   6  25
ATOM     25  O3  INB d   0      -0.994  -6.100  24.046  0.00  0.00    -0.359 OA
ATOM     26  H6  INB d   0      -0.870  -6.306  23.133  0.00  0.00     0.217 HD
ENDBRANCH   6  25
BRANCH   7  27
ATOM     27  C10 INB d   0      -3.004  -4.250  22.982  0.00  0.00     0.242 C 
BRANCH  27  28
ATOM     28  N2  INB d   0      -2.162  -4.732  21.859  0.00  0.00    -0.018 N 
ATOM     29  H23 INB d   0      -1.442  -5.310  22.270  0.00  0.00     0.284 HD
ATOM     30  C16 INB d   0      -1.463  -3.645  21.134  0.00  0.00     0.246 C 
ATOM     31  C15 INB d   0      -2.916  -5.608  20.936  0.00  0.00     0.246 C 
ENDBRANCH  27  28
ENDBRANCH   7  27
TORSDOF 8
ENDMDL
MODEL 4
REMARK VINA RESULT:    -6.228      3.037      4.527
REMARK INTER + INTRA:         -10.505
REMARK INTER:                  -9.140
REMARK INTRA:                  -1.365
REMARK UNBOUND:                -1.546
REMARK  8 active torsions:
REMARK  status: ('A' for Active; 'I' for Inactive)
REMARK    1  A    between atoms: N1_10  and  C1_1 
REMARK    2  A    between atoms: C8_20  and  C2_2 
REMARK    3  A    between atoms: C5_6  and  O3_25 
REMARK    4  A    between atoms: C7_7  and  C10_27 
REMARK       I    between atoms: C6_11  and  N1_10 
REMARK    5  A    between atoms: C12_14  and  C6_11 
REMARK    6  A    between atoms: O4_22  and  C8_20 
REMARK    7  A    between atoms: C17_23  and  O4_22 
REMARK    8  A    between atoms: C10_27  and  N2_28 
ROOT
ATOM      1  C1  INB d   0      -3.358 -10.364  27.228  0.00  0.00     0.095 A 
ATOM      2  C2  INB d   0      -4.277 -10.615  28.242  0.00  0.00     0.086 A 
ATOM      3  S1  INB d   0      -1.871 -11.266  27.423  0.00  0.00    -0.068 SA
ATOM      4  C3  INB d   0      -2.440 -12.033  28.886  0.00  0.00     0.053 A 
ATOM      5  C4  INB d   0      -3.763 -11.591  29.206  0.00  0.00     0.015 A 
ATOM      6  C5  INB d   0      -1.737 -12.968  29.675  0.00  0.00     0.093 A 
ATOM      7  C7  INB d   0      -2.338 -13.506  30.834  0.00  0.00     0.031 A 
ATOM      8  C9  INB d   0      -4.332 -12.173  30.371  0.00  0.00     0.001 A 
ATOM      9  C11 INB d   0      -3.644 -13.103  31.168  0.00  0.00    -0.000 A 
ENDROOT
BRANCH   1  10
ATOM     10  N1  INB d   0      -3.565  -9.512  26.183  0.00  0.00    -0.316 N 
ATOM     11  C6  INB d   0      -3.409  -9.689  24.855  0.00  0.00     0.258 C 
ATOM     12  O1  INB d   0      -3.286 -10.775  24.289  0.00  0.00    -0.267 OA
ATOM     13  H1  INB d   0      -3.858  -8.583  26.456  0.00  0.00     0.169 HD
BRANCH  11  14
ATOM     14  C12 INB d   0      -3.469  -8.422  24.049  0.00  0.00     0.056 A 
ATOM     15  C13 INB d   0      -2.278  -7.724  23.744  0.00  0.00     0.005 A 
ATOM     16  C20 INB d   0      -2.320  -6.527  23.006  0.00  0.00     0.000 A 
ATOM     17  C21 INB d   0      -3.555  -6.009  22.572  0.00  0.00     0.000 A 
ATOM     18  C19 INB d   0      -4.748  -6.689  22.881  0.00  0.00     0.000 A 
ATOM     19  C14 INB d   0      -4.707  -7.887  23.618  0.00  0.00     0.005 A 
ENDBRANCH  11  14
ENDBRANCH   1  10
BRANCH   2  20
ATOM     20  C8  INB d   0      -5.591  -9.948  28.284  0.00  0.00     0.298 C 
ATOM     21  O2  INB d   0      -6.677 -10.517  28.147  0.00  0.00    -0.259 OA
BRANCH  20  22
ATOM     22  O4  INB d   0      -5.501  -8.619  28.466  0.00  0.00    -0.298 OA
BRANCH  22  23
ATOM     23  C17 INB d   0      -6.383  -7.741  27.786  0.00  0.00     0.152 C 
ATOM     24  C18 INB d   0      -5.567  -6.640  27.104  0.00  0.00     0.035 C 
ENDBRANCH  22  23
ENDBRANCH  20  22
ENDBRANCH   2  20
BRANCH   6  25
ATOM     25  O3  INB d   0      -0.474 -13.333  29.300  0.00  0.00    -0.359 OA
ATOM     26  H6  INB d   0      -0.273 -14.244  29.442  0.00  0.00     0.217 HD
ENDBRANCH   6  25
BRANCH   7  27
ATOM     27  C10 INB d   0      -1.620 -14.509  31.729  0.00  0.00     0.242 C 
BRANCH  27  28
ATOM     28  N2  INB d   0      -1.595 -14.081  33.150  0.00  0.00    -0.018 N 
ATOM     29  H23 INB d   0      -2.504 -13.687  33.345  0.00  0.00     0.284 HD
ATOM     30  C16 INB d   0      -0.606 -13.013  33.430  0.00  0.00     0.246 C 
ATOM     31  C15 INB d   0      -1.435 -15.227  34.072  0.00  0.00     0.246 C 
ENDBRANCH  27  28
ENDBRANCH   7  27
TORSDOF 8
ENDMDL
MODEL 5
REMARK VINA RESULT:    -6.213      2.103      2.408
REMARK INTER + INTRA:         -10.482
REMARK INTER:                  -8.882
REMARK INTRA:                  -1.600
REMARK UNBOUND:                -1.546
REMARK  8 active torsions:
REMARK  status: ('A' for Active; 'I' for Inactive)
REMARK    1  A    between atoms: N1_10  and  C1_1 
REMARK    2  A    between atoms: C8_20  and  C2_2 
REMARK    3  A    between atoms: C5_6  and  O3_25 
REMARK    4  A    between atoms: C7_7  and  C10_27 
REMARK       I    between atoms: C6_11  and  N1_10 
REMARK    5  A    between atoms: C12_14  and  C6_11 
REMARK    6  A    between atoms: O4_22  and  C8_20 
REMARK    7  A    between atoms: C17_23  and  O4_22 
REMARK    8  A    between atoms: C10_27  and  N2_28 
ROOT
ATOM      1  C1  INB d   0      -2.791  -8.542  25.242  0.00  0.00     0.095 A 
ATOM      2  C2  INB d   0      -4.061  -8.445  25.799  0.00  0.00     0.086 A 
ATOM      3  S1  INB d   0      -1.798  -9.754  26.023  0.00  0.00    -0.068 SA
ATOM      4  C3  INB d   0      -3.074 -10.189  27.134  0.00  0.00     0.053 A 
ATOM      5  C4  INB d   0      -4.245  -9.404  26.892  0.00  0.00     0.015 A 
ATOM      6  C5  INB d   0      -3.012 -11.174  28.143  0.00  0.00     0.093 A 
ATOM      7  C7  INB d   0      -4.136 -11.417  28.962  0.00  0.00     0.031 A 
ATOM      8  C9  INB d   0      -5.355  -9.696  27.729  0.00  0.00     0.001 A 
ATOM      9  C11 INB d   0      -5.309 -10.672  28.739  0.00  0.00    -0.000 A 
ENDROOT
BRANCH   1  10
ATOM     10  N1  INB d   0      -2.337  -7.787  24.199  0.00  0.00    -0.316 N 
ATOM     11  C6  INB d   0      -1.673  -6.613  24.183  0.00  0.00     0.258 C 
ATOM     12  O1  INB d   0      -1.104  -6.101  25.146  0.00  0.00    -0.267 OA
ATOM     13  H1  INB d   0      -2.564  -8.159  23.287  0.00  0.00     0.169 HD
BRANCH  11  14
ATOM     14  C12 INB d   0      -1.598  -5.962  22.831  0.00  0.00     0.056 A 
ATOM     15  C13 INB d   0      -2.570  -6.262  21.850  0.00  0.00     0.005 A 
ATOM     16  C20 INB d   0      -2.502  -5.674  20.573  0.00  0.00     0.000 A 
ATOM     17  C21 INB d   0      -1.457  -4.786  20.260  0.00  0.00     0.000 A 
ATOM     18  C19 INB d   0      -0.476  -4.490  21.225  0.00  0.00     0.000 A 
ATOM     19  C14 INB d   0      -0.543  -5.077  22.503  0.00  0.00     0.005 A 
ENDBRANCH  11  14
ENDBRANCH   1  10
BRANCH   2  20
ATOM     20  C8  INB d   0      -5.056  -7.476  25.305  0.00  0.00     0.298 C 
ATOM     21  O2  INB d   0      -5.448  -7.398  24.138  0.00  0.00    -0.259 OA
BRANCH  20  22
ATOM     22  O4  INB d   0      -5.497  -6.641  26.261  0.00  0.00    -0.298 OA
BRANCH  22  23
ATOM     23  C17 INB d   0      -6.829  -6.154  26.230  0.00  0.00     0.152 C 
ATOM     24  C18 INB d   0      -7.606  -6.742  27.411  0.00  0.00     0.035 C 
ENDBRANCH  22  23
ENDBRANCH  20  22
ENDBRANCH   2  20
BRANCH   6  25
ATOM     25  O3  INB d   0      -1.851 -11.878  28.311  0.00  0.00    -0.359 OA
ATOM     26  H6  INB d   0      -1.479 -12.213  27.511  0.00  0.00     0.217 HD
ENDBRANCH   6  25
BRANCH   7  27
ATOM     27  C10 INB d   0      -4.120 -12.459  30.073  0.00  0.00     0.242 C 
BRANCH  27  28
ATOM     28  N2  INB d   0      -2.873 -12.409  30.877  0.00  0.00    -0.018 N 
ATOM     29  H23 INB d   0      -2.153 -12.057  30.263  0.00  0.00     0.284 HD
ATOM     30  C16 INB d   0      -2.415 -13.740  31.341  0.00  0.00     0.246 C 
ATOM     31  C15 INB d   0      -2.970 -11.445  31.995  0.00  0.00     0.246 C 
ENDBRANCH  27  28
ENDBRANCH   7  27
TORSDOF 8
ENDMDL
MODEL 6
REMARK VINA RESULT:    -6.074      2.916      5.172
REMARK INTER + INTRA:         -10.282
REMARK INTER:                  -8.816
REMARK INTRA:                  -1.467
REMARK UNBOUND:                -1.546
REMARK  8 active torsions:
REMARK  status: ('A' for Active; 'I' for Inactive)
REMARK    1  A    between atoms: N1_10  and  C1_1 
REMARK    2  A    between atoms: C8_20  and  C2_2 
REMARK    3  A    between atoms: C5_6  and  O3_25 
REMARK    4  A    between atoms: C7_7  and  C10_27 
REMARK       I    between atoms: C6_11  and  N1_10 
REMARK    5  A    between atoms: C12_14  and  C6_11 
REMARK    6  A    between atoms: O4_22  and  C8_20 
REMARK    7  A    between atoms: C17_23  and  O4_22 
REMARK    8  A    between atoms: C10_27  and  N2_28 
ROOT
ATOM      1  C1  INB d   0      -2.213  -5.318  23.207  0.00  0.00     0.095 A 
ATOM      2  C2  INB d   0      -1.762  -5.110  24.506  0.00  0.00     0.086 A 
ATOM      3  S1  INB d   0      -3.749  -6.153  23.147  0.00  0.00    -0.068 SA
ATOM      4  C3  INB d   0      -3.851  -6.246  24.889  0.00  0.00     0.053 A 
ATOM      5  C4  INB d   0      -2.709  -5.634  25.495  0.00  0.00     0.015 A 
ATOM      6  C5  INB d   0      -4.894  -6.826  25.642  0.00  0.00     0.093 A 
ATOM      7  C7  INB d   0      -4.835  -6.818  27.052  0.00  0.00     0.031 A 
ATOM      8  C9  INB d   0      -2.702  -5.634  26.916  0.00  0.00     0.001 A 
ATOM      9  C11 INB d   0      -3.732  -6.210  27.679  0.00  0.00    -0.000 A 
ENDROOT
BRANCH   1  10
ATOM     10  N1  INB d   0      -1.550  -4.925  22.080  0.00  0.00    -0.316 N 
ATOM     11  C6  INB d   0      -1.751  -3.874  21.259  0.00  0.00     0.258 C 
ATOM     12  O1  INB d   0      -2.439  -2.888  21.516  0.00  0.00    -0.267 OA
ATOM     13  H1  INB d   0      -0.800  -5.544  21.803  0.00  0.00     0.169 HD
BRANCH  11  14
ATOM     14  C12 INB d   0      -0.987  -3.942  19.966  0.00  0.00     0.056 A 
ATOM     15  C13 INB d   0      -0.235  -2.826  19.533  0.00  0.00     0.005 A 
ATOM     16  C20 INB d   0       0.470  -2.869  18.316  0.00  0.00     0.000 A 
ATOM     17  C21 INB d   0       0.425  -4.025  17.514  0.00  0.00     0.000 A 
ATOM     18  C19 INB d   0      -0.332  -5.137  17.929  0.00  0.00     0.000 A 
ATOM     19  C14 INB d   0      -1.037  -5.095  19.147  0.00  0.00     0.005 A 
ENDBRANCH  11  14
ENDBRANCH   1  10
BRANCH   2  20
ATOM     20  C8  INB d   0      -0.480  -4.440  24.788  0.00  0.00     0.298 C 
ATOM     21  O2  INB d   0       0.497  -4.976  25.318  0.00  0.00    -0.259 OA
BRANCH  20  22
ATOM     22  O4  INB d   0      -0.473  -3.145  24.428  0.00  0.00    -0.298 OA
BRANCH  22  23
ATOM     23  C17 INB d   0      -0.993  -2.155  25.301  0.00  0.00     0.152 C 
ATOM     24  C18 INB d   0      -1.968  -1.265  24.526  0.00  0.00     0.035 C 
ENDBRANCH  22  23
ENDBRANCH  20  22
ENDBRANCH   2  20
BRANCH   6  25
ATOM     25  O3  INB d   0      -5.949  -7.395  24.983  0.00  0.00    -0.359 OA
ATOM     26  H6  INB d   0      -6.770  -6.946  25.101  0.00  0.00     0.217 HD
ENDBRANCH   6  25
BRANCH   7  27
ATOM     27  C10 INB d   0      -5.926  -7.440  27.914  0.00  0.00     0.242 C 
BRANCH  27  28
ATOM     28  N2  INB d   0      -6.123  -8.882  27.622  0.00  0.00    -0.018 N 
ATOM     29  H23 INB d   0      -6.515  -8.934  26.692  0.00  0.00     0.284 HD
ATOM     30  C16 INB d   0      -7.095  -9.542  28.525  0.00  0.00     0.246 C 
ATOM     31  C15 INB d   0      -4.841  -9.618  27.569  0.00  0.00     0.246 C 
ENDBRANCH  27  28
ENDBRANCH   7  27
TORSDOF 8
ENDMDL
MODEL 7
REMARK VINA RESULT:    -6.021      1.479      2.128
REMARK INTER + INTRA:         -10.207
REMARK INTER:                  -8.652
REMARK INTRA:                  -1.554
REMARK UNBOUND:                -1.546
REMARK  8 active torsions:
REMARK  status: ('A' for Active; 'I' for Inactive)
REMARK    1  A    between atoms: N1_10  and  C1_1 
REMARK    2  A    between atoms: C8_20  and  C2_2 
REMARK    3  A    between atoms: C5_6  and  O3_25 
REMARK    4  A    between atoms: C7_7  and  C10_27 
REMARK       I    between atoms: C6_11  and  N1_10 
REMARK    5  A    between atoms: C12_14  and  C6_11 
REMARK    6  A    between atoms: O4_22  and  C8_20 
REMARK    7  A    between atoms: C17_23  and  O4_22 
REMARK    8  A    between atoms: C10_27  and  N2_28 
ROOT
ATOM      1  C1  INB d   0      -3.408  -6.360  26.538  0.00  0.00     0.095 A 
ATOM      2  C2  INB d   0      -4.686  -6.861  26.759  0.00  0.00     0.086 A 
ATOM      3  S1  INB d   0      -2.149  -7.443  27.092  0.00  0.00    -0.068 SA
ATOM      4  C3  INB d   0      -3.308  -8.630  27.638  0.00  0.00     0.053 A 
ATOM      5  C4  INB d   0      -4.644  -8.185  27.387  0.00  0.00     0.015 A 
ATOM      6  C5  INB d   0      -3.020  -9.872  28.241  0.00  0.00     0.093 A 
ATOM      7  C7  INB d   0      -4.072 -10.732  28.625  0.00  0.00     0.031 A 
ATOM      8  C9  INB d   0      -5.669  -9.090  27.774  0.00  0.00     0.001 A 
ATOM      9  C11 INB d   0      -5.398 -10.329  28.378  0.00  0.00    -0.000 A 
ENDROOT
BRANCH   1  10
ATOM     10  N1  INB d   0      -3.133  -5.156  25.955  0.00  0.00    -0.316 N 
ATOM     11  C6  INB d   0      -2.298  -4.834  24.946  0.00  0.00     0.258 C 
ATOM     12  O1  INB d   0      -1.789  -5.630  24.158  0.00  0.00    -0.267 OA
ATOM     13  H1  INB d   0      -3.618  -4.373  26.371  0.00  0.00     0.169 HD
BRANCH  11  14
ATOM     14  C12 INB d   0      -2.064  -3.359  24.781  0.00  0.00     0.056 A 
ATOM     15  C13 INB d   0      -3.017  -2.567  24.101  0.00  0.00     0.005 A 
ATOM     16  C20 INB d   0      -2.804  -1.187  23.922  0.00  0.00     0.000 A 
ATOM     17  C21 INB d   0      -1.631  -0.586  24.415  0.00  0.00     0.000 A 
ATOM     18  C19 INB d   0      -0.668  -1.367  25.081  0.00  0.00     0.000 A 
ATOM     19  C14 INB d   0      -0.881  -2.747  25.261  0.00  0.00     0.005 A 
ENDBRANCH  11  14
ENDBRANCH   1  10
BRANCH   2  20
ATOM     20  C8  INB d   0      -5.894  -6.105  26.385  0.00  0.00     0.298 C 
ATOM     21  O2  INB d   0      -6.784  -5.761  27.168  0.00  0.00    -0.259 OA
BRANCH  20  22
ATOM     22  O4  INB d   0      -5.960  -5.832  25.070  0.00  0.00    -0.298 OA
BRANCH  22  23
ATOM     23  C17 INB d   0      -6.043  -6.885  24.123  0.00  0.00     0.152 C 
ATOM     24  C18 INB d   0      -4.903  -6.741  23.112  0.00  0.00     0.035 C 
ENDBRANCH  22  23
ENDBRANCH  20  22
ENDBRANCH   2  20
BRANCH   6  25
ATOM     25  O3  INB d   0      -1.714 -10.220  28.450  0.00  0.00    -0.359 OA
ATOM     26  H6  INB d   0      -1.242  -9.639  29.024  0.00  0.00     0.217 HD
ENDBRANCH   6  25
BRANCH   7  27
ATOM     27  C10 INB d   0      -3.819 -12.078  29.292  0.00  0.00     0.242 C 
BRANCH  27  28
ATOM     28  N2  INB d   0      -2.772 -12.001  30.341  0.00  0.00    -0.018 N 
ATOM     29  H23 INB d   0      -2.205 -11.194  30.119  0.00  0.00     0.284 HD
ATOM     30  C16 INB d   0      -1.856 -13.166  30.351  0.00  0.00     0.246 C 
ATOM     31  C15 INB d   0      -3.345 -11.746  31.681  0.00  0.00     0.246 C 
ENDBRANCH  27  28
ENDBRANCH   7  27
TORSDOF 8
ENDMDL
MODEL 8
REMARK VINA RESULT:    -6.019      2.705      4.043
REMARK INTER + INTRA:         -10.203
REMARK INTER:                  -8.519
REMARK INTRA:                  -1.684
REMARK UNBOUND:                -1.546
REMARK  8 active torsions:
REMARK  status: ('A' for Active; 'I' for Inactive)
REMARK    1  A    between atoms: N1_10  and  C1_1 
REMARK    2  A    between atoms: C8_20  and  C2_2 
REMARK    3  A    between atoms: C5_6  and  O3_25 
REMARK    4  A    between atoms: C7_7  and  C10_27 
REMARK       I    between atoms: C6_11  and  N1_10 
REMARK    5  A    between atoms: C12_14  and  C6_11 
REMARK    6  A    between atoms: O4_22  and  C8_20 
REMARK    7  A    between atoms: C17_23  and  O4_22 
REMARK    8  A    between atoms: C10_27  and  N2_28 
ROOT
ATOM      1  C1  INB d   0      -2.780  -9.001  28.120  0.00  0.00     0.095 A 
ATOM      2  C2  INB d   0      -3.904  -9.767  28.409  0.00  0.00     0.086 A 
ATOM      3  S1  INB d   0      -1.347  -9.556  28.958  0.00  0.00    -0.068 SA
ATOM      4  C3  INB d   0      -2.213 -10.862  29.729  0.00  0.00     0.053 A 
ATOM      5  C4  INB d   0      -3.588 -10.860  29.334  0.00  0.00     0.015 A 
ATOM      6  C5  INB d   0      -1.678 -11.817  30.620  0.00  0.00     0.093 A 
ATOM      7  C7  INB d   0      -2.509 -12.823  31.160  0.00  0.00     0.031 A 
ATOM      8  C9  INB d   0      -4.381 -11.900  29.889  0.00  0.00     0.001 A 
ATOM      9  C11 INB d   0      -3.864 -12.857  30.779  0.00  0.00    -0.000 A 
ENDROOT
BRANCH   1  10
ATOM     10  N1  INB d   0      -2.765  -7.927  27.279  0.00  0.00    -0.316 N 
ATOM     11  C6  INB d   0      -2.916  -6.610  27.526  0.00  0.00     0.258 C 
ATOM     12  O1  INB d   0      -2.843  -6.079  28.634  0.00  0.00    -0.267 OA
ATOM     13  H1  INB d   0      -2.648  -8.165  26.303  0.00  0.00     0.169 HD
BRANCH  11  14
ATOM     14  C12 INB d   0      -3.118  -5.767  26.299  0.00  0.00     0.056 A 
ATOM     15  C13 INB d   0      -2.171  -4.772  25.964  0.00  0.00     0.005 A 
ATOM     16  C20 INB d   0      -2.356  -3.962  24.828  0.00  0.00     0.000 A 
ATOM     17  C21 INB d   0      -3.494  -4.132  24.019  0.00  0.00     0.000 A 
ATOM     18  C19 INB d   0      -4.451  -5.110  24.350  0.00  0.00     0.000 A 
ATOM     19  C14 INB d   0      -4.266  -5.921  25.486  0.00  0.00     0.005 A 
ENDBRANCH  11  14
ENDBRANCH   1  10
BRANCH   2  20
ATOM     20  C8  INB d   0      -5.223  -9.466  27.825  0.00  0.00     0.298 C 
ATOM     21  O2  INB d   0      -5.476  -9.456  26.618  0.00  0.00    -0.259 OA
BRANCH  20  22
ATOM     22  O4  INB d   0      -6.153  -9.169  28.750  0.00  0.00    -0.298 OA
BRANCH  22  23
ATOM     23  C17 INB d   0      -7.095  -8.135  28.513  0.00  0.00     0.152 C 
ATOM     24  C18 INB d   0      -6.428  -6.781  28.769  0.00  0.00     0.035 C 
ENDBRANCH  22  23
ENDBRANCH  20  22
ENDBRANCH   2  20
BRANCH   6  25
ATOM     25  O3  INB d   0      -0.352 -11.745  30.949  0.00  0.00    -0.359 OA
ATOM     26  H6  INB d   0      -0.066 -10.891  31.228  0.00  0.00     0.217 HD
ENDBRANCH   6  25
BRANCH   7  27
ATOM     27  C10 INB d   0      -1.987 -13.870  32.135  0.00  0.00     0.242 C 
BRANCH  27  28
ATOM     28  N2  INB d   0      -1.292 -13.264  33.297  0.00  0.00    -0.018 N 
ATOM     29  H23 INB d   0      -0.964 -12.358  32.992  0.00  0.00     0.284 HD
ATOM     30  C16 INB d   0      -0.094 -14.020  33.731  0.00  0.00     0.246 C 
ATOM     31  C15 INB d   0      -2.215 -13.009  34.425  0.00  0.00     0.246 C 
ENDBRANCH  27  28
ENDBRANCH   7  27
TORSDOF 8
ENDMDL
MODEL 9
REMARK VINA RESULT:    -5.984      2.012      8.206
REMARK INTER + INTRA:         -10.153
REMARK INTER:                  -8.882
REMARK INTRA:                  -1.271
REMARK UNBOUND:                -1.546
REMARK  8 active torsions:
REMARK  status: ('A' for Active; 'I' for Inactive)
REMARK    1  A    between atoms: N1_10  and  C1_1 
REMARK    2  A    between atoms: C8_20  and  C2_2 
REMARK    3  A    between atoms: C5_6  and  O3_25 
REMARK    4  A    between atoms: C7_7  and  C10_27 
REMARK       I    between atoms: C6_11  and  N1_10 
REMARK    5  A    between atoms: C12_14  and  C6_11 
REMARK    6  A    between atoms: O4_22  and  C8_20 
REMARK    7  A    between atoms: C17_23  and  O4_22 
REMARK    8  A    between atoms: C10_27  and  N2_28 
ROOT
ATOM      1  C1  INB d   0      -3.515  -8.836  27.454  0.00  0.00     0.095 A 
ATOM      2  C2  INB d   0      -4.694  -8.266  26.987  0.00  0.00     0.086 A 
ATOM      3  S1  INB d   0      -2.091  -8.190  26.668  0.00  0.00    -0.068 SA
ATOM      4  C3  INB d   0      -3.038  -7.107  25.677  0.00  0.00     0.053 A 
ATOM      5  C4  INB d   0      -4.433  -7.251  25.962  0.00  0.00     0.015 A 
ATOM      6  C5  INB d   0      -2.546  -6.194  24.720  0.00  0.00     0.093 A 
ATOM      7  C7  INB d   0      -3.443  -5.376  23.998  0.00  0.00     0.031 A 
ATOM      8  C9  INB d   0      -5.295  -6.395  25.224  0.00  0.00     0.001 A 
ATOM      9  C11 INB d   0      -4.820  -5.483  24.266  0.00  0.00    -0.000 A 
ENDROOT
BRANCH   1  10
ATOM     10  N1  INB d   0      -3.444  -9.798  28.419  0.00  0.00    -0.316 N 
ATOM     11  C6  INB d   0      -2.896  -9.774  29.652  0.00  0.00     0.258 C 
ATOM     12  O1  INB d   0      -2.562  -8.761  30.264  0.00  0.00    -0.267 OA
ATOM     13  H1  INB d   0      -3.847 -10.686  28.151  0.00  0.00     0.169 HD
BRANCH  11  14
ATOM     14  C12 INB d   0      -2.776 -11.123  30.303  0.00  0.00     0.056 A 
ATOM     15  C13 INB d   0      -1.523 -11.560  30.790  0.00  0.00     0.005 A 
ATOM     16  C20 INB d   0      -1.390 -12.828  31.386  0.00  0.00     0.000 A 
ATOM     17  C21 INB d   0      -2.507 -13.677  31.494  0.00  0.00     0.000 A 
ATOM     18  C19 INB d   0      -3.757 -13.258  30.999  0.00  0.00     0.000 A 
ATOM     19  C14 INB d   0      -3.890 -11.989  30.404  0.00  0.00     0.005 A 
ENDBRANCH  11  14
ENDBRANCH   1  10
BRANCH   2  20
ATOM     20  C8  INB d   0      -6.014  -8.675  27.499  0.00  0.00     0.298 C 
ATOM     21  O2  INB d   0      -6.299  -9.810  27.892  0.00  0.00    -0.259 OA
BRANCH  20  22
ATOM     22  O4  INB d   0      -6.918  -7.681  27.481  0.00  0.00    -0.298 OA
BRANCH  22  23
ATOM     23  C17 INB d   0      -7.621  -7.329  28.661  0.00  0.00     0.152 C 
ATOM     24  C18 INB d   0      -6.874  -6.196  29.370  0.00  0.00     0.035 C 
ENDBRANCH  22  23
ENDBRANCH  20  22
ENDBRANCH   2  20
BRANCH   6  25
ATOM     25  O3  INB d   0      -1.197  -6.122  24.506  0.00  0.00    -0.359 OA
ATOM     26  H6  INB d   0      -0.851  -6.817  23.969  0.00  0.00     0.217 HD
ENDBRANCH   6  25
BRANCH   7  27
ATOM     27  C10 INB d   0      -2.968  -4.383  22.946  0.00  0.00     0.242 C 
BRANCH  27  28
ATOM     28  N2  INB d   0      -2.024  -4.995  21.977  0.00  0.00    -0.018 N 
ATOM     29  H23 INB d   0      -1.445  -5.630  22.506  0.00  0.00     0.284 HD
ATOM     30  C16 INB d   0      -1.106  -4.017  21.346  0.00  0.00     0.246 C 
ATOM     31  C15 INB d   0      -2.722  -5.819  20.965  0.00  0.00     0.246 C 
ENDBRANCH  27  28
ENDBRANCH   7  27
TORSDOF 8
ENDMDL
MODEL 10
REMARK VINA RESULT:    -5.846      3.648      5.993
REMARK INTER + INTRA:          -9.954
REMARK INTER:                  -8.470
REMARK INTRA:                  -1.485
REMARK UNBOUND:                -1.546
REMARK  8 active torsions:
REMARK  status: ('A' for Active; 'I' for Inactive)
REMARK    1  A    between atoms: N1_10  and  C1_1 
REMARK    2  A    between atoms: C8_20  and  C2_2 
REMARK    3  A    between atoms: C5_6  and  O3_25 
REMARK    4  A    between atoms: C7_7  and  C10_27 
REMARK       I    between atoms: C6_11  and  N1_10 
REMARK    5  A    between atoms: C12_14  and  C6_11 
REMARK    6  A    between atoms: O4_22  and  C8_20 
REMARK    7  A    between atoms: C17_23  and  O4_22 
REMARK    8  A    between atoms: C10_27  and  N2_28 
ROOT
ATOM      1  C1  INB d   0      -3.491 -10.605  27.875  0.00  0.00     0.095 A 
ATOM      2  C2  INB d   0      -2.274 -11.246  27.670  0.00  0.00     0.086 A 
ATOM      3  S1  INB d   0      -4.303 -11.142  29.330  0.00  0.00    -0.068 SA
ATOM      4  C3  INB d   0      -3.016 -12.253  29.728  0.00  0.00     0.053 A 
ATOM      5  C4  INB d   0      -1.979 -12.198  28.744  0.00  0.00     0.015 A 
ATOM      6  C5  INB d   0      -2.955 -13.103  30.853  0.00  0.00     0.093 A 
ATOM      7  C7  INB d   0      -1.838 -13.946  31.041  0.00  0.00     0.031 A 
ATOM      8  C9  INB d   0      -0.868 -13.051  28.986  0.00  0.00     0.001 A 
ATOM      9  C11 INB d   0      -0.794 -13.904  30.099  0.00  0.00    -0.000 A 
ENDROOT
BRANCH   1  10
ATOM     10  N1  INB d   0      -4.022  -9.657  27.049  0.00  0.00    -0.316 N 
ATOM     11  C6  INB d   0      -3.802  -8.329  26.973  0.00  0.00     0.258 C 
ATOM     12  O1  INB d   0      -2.858  -7.731  27.488  0.00  0.00    -0.267 OA
ATOM     13  H1  INB d   0      -4.716 -10.011  26.404  0.00  0.00     0.169 HD
BRANCH  11  14
ATOM     14  C12 INB d   0      -4.788  -7.585  26.118  0.00  0.00     0.056 A 
ATOM     15  C13 INB d   0      -4.606  -7.531  24.717  0.00  0.00     0.005 A 
ATOM     16  C20 INB d   0      -5.511  -6.822  23.905  0.00  0.00     0.000 A 
ATOM     17  C21 INB d   0      -6.604  -6.152  24.486  0.00  0.00     0.000 A 
ATOM     18  C19 INB d   0      -6.788  -6.188  25.881  0.00  0.00     0.000 A 
ATOM     19  C14 INB d   0      -5.883  -6.897  26.694  0.00  0.00     0.005 A 
ENDBRANCH  11  14
ENDBRANCH   1  10
BRANCH   2  20
ATOM     20  C8  INB d   0      -1.431 -10.959  26.495  0.00  0.00     0.298 C 
ATOM     21  O2  INB d   0      -0.638 -10.017  26.408  0.00  0.00    -0.259 OA
BRANCH  20  22
ATOM     22  O4  INB d   0      -1.622 -11.825  25.485  0.00  0.00    -0.298 OA
BRANCH  22  23
ATOM     23  C17 INB d   0      -1.639 -11.368  24.143  0.00  0.00     0.152 C 
ATOM     24  C18 INB d   0      -3.037 -10.840  23.811  0.00  0.00     0.035 C 
ENDBRANCH  22  23
ENDBRANCH  20  22
ENDBRANCH   2  20
BRANCH   6  25
ATOM     25  O3  INB d   0      -3.993 -13.097  31.744  0.00  0.00    -0.359 OA
ATOM     26  H6  INB d   0      -4.248 -12.238  32.040  0.00  0.00     0.217 HD
ENDBRANCH   6  25
BRANCH   7  27
ATOM     27  C10 INB d   0      -1.727 -14.892  32.230  0.00  0.00     0.242 C 
BRANCH  27  28
ATOM     28  N2  INB d   0      -1.909 -14.193  33.527  0.00  0.00    -0.018 N 
ATOM     29  H23 INB d   0      -2.809 -13.737  33.481  0.00  0.00     0.284 HD
ATOM     30  C16 INB d   0      -0.910 -13.126  33.770  0.00  0.00     0.246 C 
ATOM     31  C15 INB d   0      -1.983 -15.140  34.662  0.00  0.00     0.246 C 
ENDBRANCH  27  28
ENDBRANCH   7  27
TORSDOF 8
ENDMDL
