MODEL 1
REMARK VINA RESULT:    -7.647      0.000      0.000
REMARK INTER + INTRA:         -10.622
REMARK INTER:                  -9.882
REMARK INTRA:                  -0.740
REMARK UNBOUND:                -0.740
REMARK  5 active torsions:
REMARK  status: ('A' for Active; 'I' for Inactive)
REMARK    1  A    between atoms: C8_1  and  N2_7 
REMARK    2  A    between atoms: N3_19  and  C9_2 
REMARK    3  A    between atoms: C3_8  and  C1_9 
REMARK    4  A    between atoms: C2_11  and  N1_16 
REMARK    5  A    between atoms: C10_21  and  N3_19 
ROOT
ATOM      1  C8  INB d   0      -3.809  -5.330  23.626  0.00  0.00     0.082 A 
ATOM      2  C9  INB d   0      -1.650  -5.163  21.783  0.00  0.00     0.057 A 
ATOM      3  C11 INB d   0      -3.618  -6.329  22.650  0.00  0.00     0.021 A 
ATOM      4  C12 INB d   0      -2.885  -4.255  23.690  0.00  0.00     0.021 A 
ATOM      5  C13 INB d   0      -2.551  -6.247  21.734  0.00  0.00     0.018 A 
ATOM      6  C14 INB d   0      -1.819  -4.174  22.775  0.00  0.00     0.018 A 
ENDROOT
BRANCH   1   7
ATOM      7  N2  INB d   0      -4.877  -5.479  24.518  0.00  0.00    -0.244 NA
ATOM      8  C3  INB d   0      -4.669  -5.814  25.728  0.00  0.00     0.101 C 
BRANCH   8   9
ATOM      9  C1  INB d   0      -5.511  -6.707  26.574  0.00  0.00     0.046 A 
ATOM     10  C5  INB d   0      -6.779  -6.361  27.126  0.00  0.00     0.133 A 
ATOM     11  O3  INB d   0      -7.370  -5.144  26.934  0.00  0.00    -0.190 OA
ATOM     12  C7  INB d   0      -7.482  -7.293  27.912  0.00  0.00     0.029 A 
ATOM     13  C6  INB d   0      -6.949  -8.569  28.163  0.00  0.00     0.026 A 
ATOM     14  C2  INB d   0      -5.697  -8.935  27.629  0.00  0.00     0.127 A 
ATOM     15  C4  INB d   0      -4.994  -7.997  26.840  0.00  0.00     0.027 A 
BRANCH  14  16
ATOM     16  N1  INB d   0      -5.132 -10.275  27.889  0.00  0.00    -0.114 N 
ATOM     17  O1  INB d   0      -5.140 -11.098  26.980  0.00  0.00    -0.532 OA
ATOM     18  O2  INB d   0      -4.681 -10.508  29.006  0.00  0.00    -0.532 OA
ENDBRANCH  14  16
ENDBRANCH   8   9
ENDBRANCH   1   7
BRANCH   2  19
ATOM     19  N3  INB d   0      -0.632  -5.119  20.902  0.00  0.00    -0.353 N 
ATOM     20  H3  INB d   0       0.123  -5.743  21.147  0.00  0.00     0.166 HD
BRANCH  19  21
ATOM     21  C10 INB d   0      -0.391  -4.433  19.767  0.00  0.00     0.057 A 
ATOM     22  C15 INB d   0      -0.461  -5.110  18.531  0.00  0.00     0.017 A 
ATOM     23  C17 INB d   0      -0.227  -4.419  17.326  0.00  0.00     0.002 A 
ATOM     24  C19 INB d   0       0.073  -3.044  17.349  0.00  0.00     0.000 A 
ATOM     25  C18 INB d   0       0.135  -2.359  18.578  0.00  0.00     0.002 A 
ATOM     26  C16 INB d   0      -0.099  -3.051  19.782  0.00  0.00     0.017 A 
ENDBRANCH  19  21
ENDBRANCH   2  19
TORSDOF 5
ENDMDL
MODEL 2
REMARK VINA RESULT:    -7.442      1.642      3.062
REMARK INTER + INTRA:         -10.358
REMARK INTER:                  -9.750
REMARK INTRA:                  -0.608
REMARK UNBOUND:                -0.740
REMARK  5 active torsions:
REMARK  status: ('A' for Active; 'I' for Inactive)
REMARK    1  A    between atoms: C8_1  and  N2_7 
REMARK    2  A    between atoms: N3_19  and  C9_2 
REMARK    3  A    between atoms: C3_8  and  C1_9 
REMARK    4  A    between atoms: C2_11  and  N1_16 
REMARK    5  A    between atoms: C10_21  and  N3_19 
ROOT
ATOM      1  C8  INB d   0      -2.272  -6.883  23.763  0.00  0.00     0.082 A 
ATOM      2  C9  INB d   0      -1.291  -4.969  21.904  0.00  0.00     0.057 A 
ATOM      3  C11 INB d   0      -1.039  -6.236  23.981  0.00  0.00     0.021 A 
ATOM      4  C12 INB d   0      -3.028  -6.539  22.614  0.00  0.00     0.021 A 
ATOM      5  C13 INB d   0      -0.549  -5.289  23.060  0.00  0.00     0.018 A 
ATOM      6  C14 INB d   0      -2.539  -5.593  21.693  0.00  0.00     0.018 A 
ENDROOT
BRANCH   1   7
ATOM      7  N2  INB d   0      -2.711  -7.800  24.726  0.00  0.00    -0.244 NA
ATOM      8  C3  INB d   0      -3.918  -8.202  24.734  0.00  0.00     0.101 C 
BRANCH   8   9
ATOM      9  C1  INB d   0      -4.762  -8.496  25.928  0.00  0.00     0.046 A 
ATOM     10  C5  INB d   0      -4.702  -9.690  26.703  0.00  0.00     0.133 A 
ATOM     11  O3  INB d   0      -3.846 -10.719  26.425  0.00  0.00    -0.190 OA
ATOM     12  C7  INB d   0      -5.554  -9.853  27.812  0.00  0.00     0.029 A 
ATOM     13  C6  INB d   0      -6.469  -8.848  28.170  0.00  0.00     0.026 A 
ATOM     14  C2  INB d   0      -6.546  -7.657  27.419  0.00  0.00     0.127 A 
ATOM     15  C4  INB d   0      -5.690  -7.497  26.306  0.00  0.00     0.027 A 
BRANCH  14  16
ATOM     16  N1  INB d   0      -7.505  -6.596  27.790  0.00  0.00    -0.114 N 
ATOM     17  O1  INB d   0      -7.277  -5.449  27.423  0.00  0.00    -0.532 OA
ATOM     18  O2  INB d   0      -8.489  -6.910  28.453  0.00  0.00    -0.532 OA
ENDBRANCH  14  16
ENDBRANCH   8   9
ENDBRANCH   1   7
BRANCH   2  19
ATOM     19  N3  INB d   0      -0.802  -4.050  21.048  0.00  0.00    -0.353 N 
ATOM     20  H3  INB d   0      -0.598  -3.169  21.497  0.00  0.00     0.166 HD
BRANCH  19  21
ATOM     21  C10 INB d   0      -0.523  -4.038  19.730  0.00  0.00     0.057 A 
ATOM     22  C15 INB d   0       0.021  -2.869  19.157  0.00  0.00     0.017 A 
ATOM     23  C17 INB d   0       0.337  -2.829  17.784  0.00  0.00     0.002 A 
ATOM     24  C19 INB d   0       0.114  -3.960  16.977  0.00  0.00     0.000 A 
ATOM     25  C18 INB d   0      -0.420  -5.134  17.543  0.00  0.00     0.002 A 
ATOM     26  C16 INB d   0      -0.734  -5.173  18.915  0.00  0.00     0.017 A 
ENDBRANCH  19  21
ENDBRANCH   2  19
TORSDOF 5
ENDMDL
MODEL 3
REMARK VINA RESULT:    -7.334      2.027      3.497
REMARK INTER + INTRA:         -10.218
REMARK INTER:                  -9.421
REMARK INTRA:                  -0.797
REMARK UNBOUND:                -0.740
REMARK  5 active torsions:
REMARK  status: ('A' for Active; 'I' for Inactive)
REMARK    1  A    between atoms: C8_1  and  N2_7 
REMARK    2  A    between atoms: N3_19  and  C9_2 
REMARK    3  A    between atoms: C3_8  and  C1_9 
REMARK    4  A    between atoms: C2_11  and  N1_16 
REMARK    5  A    between atoms: C10_21  and  N3_19 
ROOT
ATOM      1  C8  INB d   0      -2.628  -7.062  23.924  0.00  0.00     0.082 A 
ATOM      2  C9  INB d   0      -1.776  -5.197  21.955  0.00  0.00     0.057 A 
ATOM      3  C11 INB d   0      -1.408  -6.371  24.068  0.00  0.00     0.021 A 
ATOM      4  C12 INB d   0      -3.436  -6.787  22.792  0.00  0.00     0.021 A 
ATOM      5  C13 INB d   0      -0.983  -5.448  23.093  0.00  0.00     0.018 A 
ATOM      6  C14 INB d   0      -3.011  -5.865  21.817  0.00  0.00     0.018 A 
ENDROOT
BRANCH   1   7
ATOM      7  N2  INB d   0      -3.002  -7.952  24.937  0.00  0.00    -0.244 NA
ATOM      8  C3  INB d   0      -4.180  -8.432  24.976  0.00  0.00     0.101 C 
BRANCH   8   9
ATOM      9  C1  INB d   0      -4.999  -8.715  26.189  0.00  0.00     0.046 A 
ATOM     10  C5  INB d   0      -4.908  -9.892  26.986  0.00  0.00     0.133 A 
ATOM     11  O3  INB d   0      -4.040 -10.913  26.715  0.00  0.00    -0.190 OA
ATOM     12  C7  INB d   0      -5.737 -10.046  28.113  0.00  0.00     0.029 A 
ATOM     13  C6  INB d   0      -6.662  -9.048  28.467  0.00  0.00     0.026 A 
ATOM     14  C2  INB d   0      -6.771  -7.874  27.694  0.00  0.00     0.127 A 
ATOM     15  C4  INB d   0      -5.937  -7.724  26.563  0.00  0.00     0.027 A 
BRANCH  14  16
ATOM     16  N1  INB d   0      -7.741  -6.822  28.061  0.00  0.00    -0.114 N 
ATOM     17  O1  INB d   0      -8.134  -6.770  29.221  0.00  0.00    -0.532 OA
ATOM     18  O2  INB d   0      -8.113  -6.045  27.186  0.00  0.00    -0.532 OA
ENDBRANCH  14  16
ENDBRANCH   8   9
ENDBRANCH   1   7
BRANCH   2  19
ATOM     19  N3  INB d   0      -1.348  -4.299  21.045  0.00  0.00    -0.353 N 
ATOM     20  H3  INB d   0      -1.174  -4.714  20.142  0.00  0.00     0.166 HD
BRANCH  19  21
ATOM     21  C10 INB d   0      -1.101  -2.974  21.066  0.00  0.00     0.057 A 
ATOM     22  C15 INB d   0      -1.875  -2.148  21.907  0.00  0.00     0.017 A 
ATOM     23  C17 INB d   0      -1.634  -0.761  21.961  0.00  0.00     0.002 A 
ATOM     24  C19 INB d   0      -0.611  -0.193  21.178  0.00  0.00     0.000 A 
ATOM     25  C18 INB d   0       0.173  -1.013  20.344  0.00  0.00     0.002 A 
ATOM     26  C16 INB d   0      -0.069  -2.399  20.291  0.00  0.00     0.017 A 
ENDBRANCH  19  21
ENDBRANCH   2  19
TORSDOF 5
ENDMDL
MODEL 4
REMARK VINA RESULT:    -7.327      4.841      7.112
REMARK INTER + INTRA:         -10.209
REMARK INTER:                  -9.418
REMARK INTRA:                  -0.791
REMARK UNBOUND:                -0.740
REMARK  5 active torsions:
REMARK  status: ('A' for Active; 'I' for Inactive)
REMARK    1  A    between atoms: C8_1  and  N2_7 
REMARK    2  A    between atoms: N3_19  and  C9_2 
REMARK    3  A    between atoms: C3_8  and  C1_9 
REMARK    4  A    between atoms: C2_11  and  N1_16 
REMARK    5  A    between atoms: C10_21  and  N3_19 
ROOT
ATOM      1  C8  INB d   0      -6.721  -6.403  29.218  0.00  0.00     0.082 A 
ATOM      2  C9  INB d   0      -6.019  -6.776  26.488  0.00  0.00     0.057 A 
ATOM      3  C11 INB d   0      -7.704  -6.350  28.208  0.00  0.00     0.021 A 
ATOM      4  C12 INB d   0      -5.380  -6.675  28.848  0.00  0.00     0.021 A 
ATOM      5  C13 INB d   0      -7.358  -6.532  26.856  0.00  0.00     0.018 A 
ATOM      6  C14 INB d   0      -5.034  -6.857  27.495  0.00  0.00     0.018 A 
ENDROOT
BRANCH   1   7
ATOM      7  N2  INB d   0      -7.133  -6.232  30.545  0.00  0.00    -0.244 NA
ATOM      8  C3  INB d   0      -7.001  -5.107  31.124  0.00  0.00     0.101 C 
BRANCH   8   9
ATOM      9  C1  INB d   0      -6.644  -4.865  32.551  0.00  0.00     0.046 A 
ATOM     10  C5  INB d   0      -7.526  -4.345  33.542  0.00  0.00     0.133 A 
ATOM     11  O3  INB d   0      -8.824  -4.003  33.282  0.00  0.00    -0.190 OA
ATOM     12  C7  INB d   0      -7.072  -4.159  34.862  0.00  0.00     0.029 A 
ATOM     13  C6  INB d   0      -5.752  -4.482  35.220  0.00  0.00     0.026 A 
ATOM     14  C2  INB d   0      -4.860  -4.998  34.258  0.00  0.00     0.127 A 
ATOM     15  C4  INB d   0      -5.320  -5.182  32.934  0.00  0.00     0.027 A 
BRANCH  14  16
ATOM     16  N1  INB d   0      -3.471  -5.339  34.628  0.00  0.00    -0.114 N 
ATOM     17  O1  INB d   0      -3.268  -6.395  35.217  0.00  0.00    -0.532 OA
ATOM     18  O2  INB d   0      -2.581  -4.548  34.332  0.00  0.00    -0.532 OA
ENDBRANCH  14  16
ENDBRANCH   8   9
ENDBRANCH   1   7
BRANCH   2  19
ATOM     19  N3  INB d   0      -5.720  -6.958  25.187  0.00  0.00    -0.353 N 
ATOM     20  H3  INB d   0      -6.426  -7.487  24.696  0.00  0.00     0.166 HD
BRANCH  19  21
ATOM     21  C10 INB d   0      -4.696  -6.595  24.390  0.00  0.00     0.057 A 
ATOM     22  C15 INB d   0      -4.381  -5.226  24.264  0.00  0.00     0.017 A 
ATOM     23  C17 INB d   0      -3.308  -4.814  23.450  0.00  0.00     0.002 A 
ATOM     24  C19 INB d   0      -2.539  -5.770  22.760  0.00  0.00     0.000 A 
ATOM     25  C18 INB d   0      -2.841  -7.140  22.889  0.00  0.00     0.002 A 
ATOM     26  C16 INB d   0      -3.913  -7.551  23.704  0.00  0.00     0.017 A 
ENDBRANCH  19  21
ENDBRANCH   2  19
TORSDOF 5
ENDMDL
MODEL 5
REMARK VINA RESULT:    -7.272      3.086      4.458
REMARK INTER + INTRA:         -10.137
REMARK INTER:                  -9.339
REMARK INTRA:                  -0.799
REMARK UNBOUND:                -0.740
REMARK  5 active torsions:
REMARK  status: ('A' for Active; 'I' for Inactive)
REMARK    1  A    between atoms: C8_1  and  N2_7 
REMARK    2  A    between atoms: N3_19  and  C9_2 
REMARK    3  A    between atoms: C3_8  and  C1_9 
REMARK    4  A    between atoms: C2_11  and  N1_16 
REMARK    5  A    between atoms: C10_21  and  N3_19 
ROOT
ATOM      1  C8  INB d   0      -3.710  -8.323  24.229  0.00  0.00     0.082 A 
ATOM      2  C9  INB d   0      -2.977  -5.930  22.879  0.00  0.00     0.057 A 
ATOM      3  C11 INB d   0      -2.365  -7.901  24.191  0.00  0.00     0.021 A 
ATOM      4  C12 INB d   0      -4.694  -7.515  23.606  0.00  0.00     0.021 A 
ATOM      5  C13 INB d   0      -2.000  -6.718  23.521  0.00  0.00     0.018 A 
ATOM      6  C14 INB d   0      -4.329  -6.332  22.936  0.00  0.00     0.018 A 
ENDROOT
BRANCH   1   7
ATOM      7  N2  INB d   0      -4.009  -9.498  24.928  0.00  0.00    -0.244 NA
ATOM      8  C3  INB d   0      -4.388  -9.452  26.141  0.00  0.00     0.101 C 
BRANCH   8   9
ATOM      9  C1  INB d   0      -4.049 -10.414  27.229  0.00  0.00     0.046 A 
ATOM     10  C5  INB d   0      -4.807 -10.610  28.419  0.00  0.00     0.133 A 
ATOM     11  O3  INB d   0      -5.953  -9.919  28.697  0.00  0.00    -0.190 OA
ATOM     12  C7  INB d   0      -4.384 -11.551  29.377  0.00  0.00     0.029 A 
ATOM     13  C6  INB d   0      -3.215 -12.305  29.176  0.00  0.00     0.026 A 
ATOM     14  C2  INB d   0      -2.447 -12.129  28.006  0.00  0.00     0.127 A 
ATOM     15  C4  INB d   0      -2.876 -11.183  27.047  0.00  0.00     0.027 A 
BRANCH  14  16
ATOM     16  N1  INB d   0      -1.218 -12.919  27.789  0.00  0.00    -0.114 N 
ATOM     17  O1  INB d   0      -0.871 -13.151  26.637  0.00  0.00    -0.532 OA
ATOM     18  O2  INB d   0      -0.600 -13.312  28.773  0.00  0.00    -0.532 OA
ENDBRANCH  14  16
ENDBRANCH   8   9
ENDBRANCH   1   7
BRANCH   2  19
ATOM     19  N3  INB d   0      -2.599  -4.797  22.257  0.00  0.00    -0.353 N 
ATOM     20  H3  INB d   0      -2.295  -4.957  21.307  0.00  0.00     0.166 HD
BRANCH  19  21
ATOM     21  C10 INB d   0      -2.533  -3.498  22.611  0.00  0.00     0.057 A 
ATOM     22  C15 INB d   0      -2.044  -2.559  21.679  0.00  0.00     0.017 A 
ATOM     23  C17 INB d   0      -1.975  -1.192  22.013  0.00  0.00     0.002 A 
ATOM     24  C19 INB d   0      -2.400  -0.755  23.282  0.00  0.00     0.000 A 
ATOM     25  C18 INB d   0      -2.899  -1.685  24.215  0.00  0.00     0.002 A 
ATOM     26  C16 INB d   0      -2.968  -3.051  23.879  0.00  0.00     0.017 A 
ENDBRANCH  19  21
ENDBRANCH   2  19
TORSDOF 5
ENDMDL
MODEL 6
REMARK VINA RESULT:    -7.055      4.027      9.412
REMARK INTER + INTRA:          -9.858
REMARK INTER:                  -9.031
REMARK INTRA:                  -0.826
REMARK UNBOUND:                -0.740
REMARK  5 active torsions:
REMARK  status: ('A' for Active; 'I' for Inactive)
REMARK    1  A    between atoms: C8_1  and  N2_7 
REMARK    2  A    between atoms: N3_19  and  C9_2 
REMARK    3  A    between atoms: C3_8  and  C1_9 
REMARK    4  A    between atoms: C2_11  and  N1_16 
REMARK    5  A    between atoms: C10_21  and  N3_19 
ROOT
ATOM      1  C8  INB d   0      -3.066  -4.807  24.579  0.00  0.00     0.082 A 
ATOM      2  C9  INB d   0      -4.716  -6.650  25.979  0.00  0.00     0.057 A 
ATOM      3  C11 INB d   0      -2.807  -5.123  25.928  0.00  0.00     0.021 A 
ATOM      4  C12 INB d   0      -4.148  -5.448  23.925  0.00  0.00     0.021 A 
ATOM      5  C13 INB d   0      -3.625  -6.034  26.624  0.00  0.00     0.018 A 
ATOM      6  C14 INB d   0      -4.965  -6.359  24.620  0.00  0.00     0.018 A 
ENDROOT
BRANCH   1   7
ATOM      7  N2  INB d   0      -2.204  -3.908  23.939  0.00  0.00    -0.244 NA
ATOM      8  C3  INB d   0      -2.507  -3.417  22.805  0.00  0.00     0.101 C 
BRANCH   8   9
ATOM      9  C1  INB d   0      -1.580  -3.119  21.675  0.00  0.00     0.046 A 
ATOM     10  C5  INB d   0      -0.826  -1.920  21.525  0.00  0.00     0.133 A 
ATOM     11  O3  INB d   0      -0.874  -0.889  22.421  0.00  0.00    -0.190 OA
ATOM     12  C7  INB d   0       0.018  -1.754  20.410  0.00  0.00     0.029 A 
ATOM     13  C6  INB d   0       0.129  -2.761  19.436  0.00  0.00     0.026 A 
ATOM     14  C2  INB d   0      -0.608  -3.956  19.562  0.00  0.00     0.127 A 
ATOM     15  C4  INB d   0      -1.454  -4.119  20.682  0.00  0.00     0.027 A 
BRANCH  14  16
ATOM     16  N1  INB d   0      -0.495  -5.019  18.542  0.00  0.00    -0.114 N 
ATOM     17  O1  INB d   0      -1.371  -5.876  18.494  0.00  0.00    -0.532 OA
ATOM     18  O2  INB d   0       0.472  -4.998  17.787  0.00  0.00    -0.532 OA
ENDBRANCH  14  16
ENDBRANCH   8   9
ENDBRANCH   1   7
BRANCH   2  19
ATOM     19  N3  INB d   0      -5.473  -7.527  26.667  0.00  0.00    -0.353 N 
ATOM     20  H3  INB d   0      -6.352  -7.131  26.968  0.00  0.00     0.166 HD
BRANCH  19  21
ATOM     21  C10 INB d   0      -5.326  -8.812  27.045  0.00  0.00     0.057 A 
ATOM     22  C15 INB d   0      -4.390  -9.621  26.367  0.00  0.00     0.017 A 
ATOM     23  C17 INB d   0      -4.203 -10.965  26.746  0.00  0.00     0.002 A 
ATOM     24  C19 INB d   0      -4.948 -11.507  27.811  0.00  0.00     0.000 A 
ATOM     25  C18 INB d   0      -5.877 -10.703  28.499  0.00  0.00     0.002 A 
ATOM     26  C16 INB d   0      -6.063  -9.360  28.119  0.00  0.00     0.017 A 
ENDBRANCH  19  21
ENDBRANCH   2  19
TORSDOF 5
ENDMDL
MODEL 7
REMARK VINA RESULT:    -6.967      2.758      3.555
REMARK INTER + INTRA:          -9.744
REMARK INTER:                  -8.926
REMARK INTRA:                  -0.819
REMARK UNBOUND:                -0.740
REMARK  5 active torsions:
REMARK  status: ('A' for Active; 'I' for Inactive)
REMARK    1  A    between atoms: C8_1  and  N2_7 
REMARK    2  A    between atoms: N3_19  and  C9_2 
REMARK    3  A    between atoms: C3_8  and  C1_9 
REMARK    4  A    between atoms: C2_11  and  N1_16 
REMARK    5  A    between atoms: C10_21  and  N3_19 
ROOT
ATOM      1  C8  INB d   0      -3.865  -7.960  24.402  0.00  0.00     0.082 A 
ATOM      2  C9  INB d   0      -3.057  -5.778  22.769  0.00  0.00     0.057 A 
ATOM      3  C11 INB d   0      -4.775  -7.351  23.512  0.00  0.00     0.021 A 
ATOM      4  C12 INB d   0      -2.532  -7.482  24.444  0.00  0.00     0.021 A 
ATOM      5  C13 INB d   0      -4.377  -6.269  22.705  0.00  0.00     0.018 A 
ATOM      6  C14 INB d   0      -2.134  -6.399  23.637  0.00  0.00     0.018 A 
ENDROOT
BRANCH   1   7
ATOM      7  N2  INB d   0      -4.319  -9.044  25.163  0.00  0.00    -0.244 NA
ATOM      8  C3  INB d   0      -4.241  -9.020  26.433  0.00  0.00     0.101 C 
BRANCH   8   9
ATOM      9  C1  INB d   0      -3.931 -10.164  27.338  0.00  0.00     0.046 A 
ATOM     10  C5  INB d   0      -4.693 -10.535  28.484  0.00  0.00     0.133 A 
ATOM     11  O3  INB d   0      -5.814  -9.864  28.885  0.00  0.00    -0.190 OA
ATOM     12  C7  INB d   0      -4.299 -11.639  29.264  0.00  0.00     0.029 A 
ATOM     13  C6  INB d   0      -3.157 -12.386  28.928  0.00  0.00     0.026 A 
ATOM     14  C2  INB d   0      -2.387 -12.038  27.799  0.00  0.00     0.127 A 
ATOM     15  C4  INB d   0      -2.785 -10.929  27.019  0.00  0.00     0.027 A 
BRANCH  14  16
ATOM     16  N1  INB d   0      -1.185 -12.820  27.441  0.00  0.00    -0.114 N 
ATOM     17  O1  INB d   0      -0.929 -12.983  26.253  0.00  0.00    -0.532 OA
ATOM     18  O2  INB d   0      -0.497 -13.275  28.349  0.00  0.00    -0.532 OA
ENDBRANCH  14  16
ENDBRANCH   8   9
ENDBRANCH   1   7
BRANCH   2  19
ATOM     19  N3  INB d   0      -2.702  -4.748  21.974  0.00  0.00    -0.353 N 
ATOM     20  H3  INB d   0      -3.138  -3.879  22.246  0.00  0.00     0.166 HD
BRANCH  19  21
ATOM     21  C10 INB d   0      -1.898  -4.614  20.901  0.00  0.00     0.057 A 
ATOM     22  C15 INB d   0      -1.967  -5.576  19.871  0.00  0.00     0.017 A 
ATOM     23  C17 INB d   0      -1.149  -5.457  18.730  0.00  0.00     0.002 A 
ATOM     24  C19 INB d   0      -0.261  -4.372  18.610  0.00  0.00     0.000 A 
ATOM     25  C18 INB d   0      -0.194  -3.403  19.629  0.00  0.00     0.002 A 
ATOM     26  C16 INB d   0      -1.012  -3.522  20.769  0.00  0.00     0.017 A 
ENDBRANCH  19  21
ENDBRANCH   2  19
TORSDOF 5
ENDMDL
MODEL 8
REMARK VINA RESULT:    -6.966      2.510      3.634
REMARK INTER + INTRA:          -9.742
REMARK INTER:                  -8.964
REMARK INTRA:                  -0.779
REMARK UNBOUND:                -0.740
REMARK  5 active torsions:
REMARK  status: ('A' for Active; 'I' for Inactive)
REMARK    1  A    between atoms: C8_1  and  N2_7 
REMARK    2  A    between atoms: N3_19  and  C9_2 
REMARK    3  A    between atoms: C3_8  and  C1_9 
REMARK    4  A    between atoms: C2_11  and  N1_16 
REMARK    5  A    between atoms: C10_21  and  N3_19 
ROOT
ATOM      1  C8  INB d   0      -2.285  -6.803  23.988  0.00  0.00     0.082 A 
ATOM      2  C9  INB d   0      -2.441  -4.443  22.411  0.00  0.00     0.057 A 
ATOM      3  C11 INB d   0      -2.520  -6.879  22.600  0.00  0.00     0.021 A 
ATOM      4  C12 INB d   0      -2.100  -5.527  24.578  0.00  0.00     0.021 A 
ATOM      5  C13 INB d   0      -2.599  -5.711  21.818  0.00  0.00     0.018 A 
ATOM      6  C14 INB d   0      -2.179  -4.359  23.796  0.00  0.00     0.018 A 
ENDROOT
BRANCH   1   7
ATOM      7  N2  INB d   0      -2.199  -8.002  24.706  0.00  0.00    -0.244 NA
ATOM      8  C3  INB d   0      -3.090  -8.900  24.576  0.00  0.00     0.101 C 
BRANCH   8   9
ATOM      9  C1  INB d   0      -3.631  -9.794  25.639  0.00  0.00     0.046 A 
ATOM     10  C5  INB d   0      -3.190 -11.125  25.898  0.00  0.00     0.133 A 
ATOM     11  O3  INB d   0      -2.203 -11.737  25.179  0.00  0.00    -0.190 OA
ATOM     12  C7  INB d   0      -3.781 -11.873  26.934  0.00  0.00     0.029 A 
ATOM     13  C6  INB d   0      -4.806 -11.324  27.723  0.00  0.00     0.026 A 
ATOM     14  C2  INB d   0      -5.259 -10.010  27.487  0.00  0.00     0.127 A 
ATOM     15  C4  INB d   0      -4.664  -9.262  26.446  0.00  0.00     0.027 A 
BRANCH  14  16
ATOM     16  N1  INB d   0      -6.336  -9.428  28.314  0.00  0.00    -0.114 N 
ATOM     17  O1  INB d   0      -7.366 -10.074  28.469  0.00  0.00    -0.532 OA
ATOM     18  O2  INB d   0      -6.153  -8.320  28.809  0.00  0.00    -0.532 OA
ENDBRANCH  14  16
ENDBRANCH   8   9
ENDBRANCH   1   7
BRANCH   2  19
ATOM     19  N3  INB d   0      -2.510  -3.343  21.634  0.00  0.00    -0.353 N 
ATOM     20  H3  INB d   0      -3.357  -3.307  21.086  0.00  0.00     0.166 HD
BRANCH  19  21
ATOM     21  C10 INB d   0      -1.708  -2.281  21.423  0.00  0.00     0.057 A 
ATOM     22  C15 INB d   0      -0.630  -2.408  20.522  0.00  0.00     0.017 A 
ATOM     23  C17 INB d   0       0.220  -1.313  20.269  0.00  0.00     0.002 A 
ATOM     24  C19 INB d   0      -0.008  -0.081  20.913  0.00  0.00     0.000 A 
ATOM     25  C18 INB d   0      -1.088   0.055  21.806  0.00  0.00     0.002 A 
ATOM     26  C16 INB d   0      -1.936  -1.040  22.058  0.00  0.00     0.017 A 
ENDBRANCH  19  21
ENDBRANCH   2  19
TORSDOF 5
ENDMDL
MODEL 9
REMARK VINA RESULT:    -6.938      4.248      9.610
REMARK INTER + INTRA:          -9.706
REMARK INTER:                  -9.133
REMARK INTRA:                  -0.573
REMARK UNBOUND:                -0.740
REMARK  5 active torsions:
REMARK  status: ('A' for Active; 'I' for Inactive)
REMARK    1  A    between atoms: C8_1  and  N2_7 
REMARK    2  A    between atoms: N3_19  and  C9_2 
REMARK    3  A    between atoms: C3_8  and  C1_9 
REMARK    4  A    between atoms: C2_11  and  N1_16 
REMARK    5  A    between atoms: C10_21  and  N3_19 
ROOT
ATOM      1  C8  INB d   0      -3.908  -7.695  24.728  0.00  0.00     0.082 A 
ATOM      2  C9  INB d   0      -4.046 -10.198  26.070  0.00  0.00     0.057 A 
ATOM      3  C11 INB d   0      -4.678  -7.842  25.901  0.00  0.00     0.021 A 
ATOM      4  C12 INB d   0      -3.180  -8.813  24.248  0.00  0.00     0.021 A 
ATOM      5  C13 INB d   0      -4.749  -9.081  26.565  0.00  0.00     0.018 A 
ATOM      6  C14 INB d   0      -3.252 -10.052  24.912  0.00  0.00     0.018 A 
ENDROOT
BRANCH   1   7
ATOM      7  N2  INB d   0      -3.864  -6.432  24.126  0.00  0.00    -0.244 NA
ATOM      8  C3  INB d   0      -3.635  -6.317  22.880  0.00  0.00     0.101 C 
BRANCH   8   9
ATOM      9  C1  INB d   0      -2.841  -5.251  22.204  0.00  0.00     0.046 A 
ATOM     10  C5  INB d   0      -2.674  -3.920  22.686  0.00  0.00     0.133 A 
ATOM     11  O3  INB d   0      -3.240  -3.469  23.845  0.00  0.00    -0.190 OA
ATOM     12  C7  INB d   0      -1.899  -3.000  21.956  0.00  0.00     0.029 A 
ATOM     13  C6  INB d   0      -1.282  -3.375  20.750  0.00  0.00     0.026 A 
ATOM     14  C2  INB d   0      -1.432  -4.686  20.253  0.00  0.00     0.127 A 
ATOM     15  C4  INB d   0      -2.212  -5.608  20.988  0.00  0.00     0.027 A 
BRANCH  14  16
ATOM     16  N1  INB d   0      -0.785  -5.087  18.987  0.00  0.00    -0.114 N 
ATOM     17  O1  INB d   0      -1.375  -5.875  18.255  0.00  0.00    -0.532 OA
ATOM     18  O2  INB d   0       0.317  -4.616  18.724  0.00  0.00    -0.532 OA
ENDBRANCH  14  16
ENDBRANCH   8   9
ENDBRANCH   1   7
BRANCH   2  19
ATOM     19  N3  INB d   0      -4.124 -11.368  26.735  0.00  0.00    -0.353 N 
ATOM     20  H3  INB d   0      -4.635 -12.072  26.224  0.00  0.00     0.166 HD
BRANCH  19  21
ATOM     21  C10 INB d   0      -3.675 -11.812  27.925  0.00  0.00     0.057 A 
ATOM     22  C15 INB d   0      -2.340 -12.258  28.029  0.00  0.00     0.017 A 
ATOM     23  C17 INB d   0      -1.836 -12.717  29.262  0.00  0.00     0.002 A 
ATOM     24  C19 INB d   0      -2.662 -12.727  30.401  0.00  0.00     0.000 A 
ATOM     25  C18 INB d   0      -3.993 -12.274  30.308  0.00  0.00     0.002 A 
ATOM     26  C16 INB d   0      -4.495 -11.815  29.075  0.00  0.00     0.017 A 
ENDBRANCH  19  21
ENDBRANCH   2  19
TORSDOF 5
ENDMDL
MODEL 10
REMARK VINA RESULT:    -6.858      3.701      9.419
REMARK INTER + INTRA:          -9.603
REMARK INTER:                  -8.863
REMARK INTRA:                  -0.739
REMARK UNBOUND:                -0.740
REMARK  5 active torsions:
REMARK  status: ('A' for Active; 'I' for Inactive)
REMARK    1  A    between atoms: C8_1  and  N2_7 
REMARK    2  A    between atoms: N3_19  and  C9_2 
REMARK    3  A    between atoms: C3_8  and  C1_9 
REMARK    4  A    between atoms: C2_11  and  N1_16 
REMARK    5  A    between atoms: C10_21  and  N3_19 
ROOT
ATOM      1  C8  INB d   0      -4.690  -7.240  25.229  0.00  0.00     0.082 A 
ATOM      2  C9  INB d   0      -4.730  -9.696  26.660  0.00  0.00     0.057 A 
ATOM      3  C11 INB d   0      -3.961  -8.355  24.766  0.00  0.00     0.021 A 
ATOM      4  C12 INB d   0      -5.467  -7.377  26.407  0.00  0.00     0.021 A 
ATOM      5  C13 INB d   0      -3.977  -9.571  25.475  0.00  0.00     0.018 A 
ATOM      6  C14 INB d   0      -5.483  -8.593  27.115  0.00  0.00     0.018 A 
ENDROOT
BRANCH   1   7
ATOM      7  N2  INB d   0      -4.647  -6.066  24.468  0.00  0.00    -0.244 NA
ATOM      8  C3  INB d   0      -3.974  -6.017  23.389  0.00  0.00     0.101 C 
BRANCH   8   9
ATOM      9  C1  INB d   0      -3.190  -4.862  22.867  0.00  0.00     0.046 A 
ATOM     10  C5  INB d   0      -2.548  -4.811  21.596  0.00  0.00     0.133 A 
ATOM     11  O3  INB d   0      -2.582  -5.843  20.700  0.00  0.00    -0.190 OA
ATOM     12  C7  INB d   0      -1.834  -3.659  21.213  0.00  0.00     0.029 A 
ATOM     13  C6  INB d   0      -1.744  -2.551  22.073  0.00  0.00     0.026 A 
ATOM     14  C2  INB d   0      -2.370  -2.577  23.335  0.00  0.00     0.127 A 
ATOM     15  C4  INB d   0      -3.086  -3.735  23.716  0.00  0.00     0.027 A 
BRANCH  14  16
ATOM     16  N1  INB d   0      -2.279  -1.414  24.242  0.00  0.00    -0.114 N 
ATOM     17  O1  INB d   0      -3.235  -0.648  24.305  0.00  0.00    -0.532 OA
ATOM     18  O2  INB d   0      -1.250  -1.265  24.892  0.00  0.00    -0.532 OA
ENDBRANCH  14  16
ENDBRANCH   8   9
ENDBRANCH   1   7
BRANCH   2  19
ATOM     19  N3  INB d   0      -4.735 -10.877  27.310  0.00  0.00    -0.353 N 
ATOM     20  H3  INB d   0      -5.523 -11.456  27.058  0.00  0.00     0.166 HD
BRANCH  19  21
ATOM     21  C10 INB d   0      -3.929 -11.462  28.218  0.00  0.00     0.057 A 
ATOM     22  C15 INB d   0      -4.381 -11.594  29.548  0.00  0.00     0.017 A 
ATOM     23  C17 INB d   0      -3.569 -12.212  30.519  0.00  0.00     0.002 A 
ATOM     24  C19 INB d   0      -2.300 -12.707  30.164  0.00  0.00     0.000 A 
ATOM     25  C18 INB d   0      -1.845 -12.587  28.836  0.00  0.00     0.002 A 
ATOM     26  C16 INB d   0      -2.659 -11.970  27.866  0.00  0.00     0.017 A 
ENDBRANCH  19  21
ENDBRANCH   2  19
TORSDOF 5
ENDMDL
