REMARK  5 active torsions:
REMARK  status: ('A' for Active; 'I' for Inactive)
REMARK    1  A    between atoms: C8_1  and  N2_7 
REMARK    2  A    between atoms: N3_19  and  C9_2 
REMARK    3  A    between atoms: C3_8  and  C1_9 
REMARK    4  A    between atoms: C2_11  and  N1_16 
REMARK    5  A    between atoms: C10_21  and  N3_19 
ROOT
ATOM      1  C8  INB d   0     -49.241 -16.334  18.117  0.00  0.00     0.082 A 
ATOM      2  C9  INB d   0     -51.549 -15.438  16.719  0.00  0.00     0.057 A 
ATOM      3  C11 INB d   0     -49.125 -15.734  16.846  0.00  0.00     0.021 A 
ATOM      4  C12 INB d   0     -50.529 -16.455  18.697  0.00  0.00     0.021 A 
ATOM      5  C13 INB d   0     -50.267 -15.292  16.151  0.00  0.00     0.018 A 
ATOM      6  C14 INB d   0     -51.671 -16.013  18.002  0.00  0.00     0.018 A 
ENDROOT
BRANCH   1   7
ATOM      7  N2  INB d   0     -48.066 -16.735  18.763  0.00  0.00    -0.244 NA
ATOM      8  C3  INB d   0     -47.286 -15.874  19.282  0.00  0.00     0.101 C 
BRANCH   8   9
ATOM      9  C1  INB d   0     -45.796 -15.912  19.316  0.00  0.00     0.046 A 
ATOM     10  C5  INB d   0     -44.937 -15.398  18.302  0.00  0.00     0.133 A 
ATOM     11  O3  INB d   0     -45.400 -14.803  17.162  0.00  0.00    -0.190 OA
ATOM     12  C7  INB d   0     -43.540 -15.493  18.448  0.00  0.00     0.029 A 
ATOM     13  C6  INB d   0     -42.975 -16.092  19.587  0.00  0.00     0.026 A 
ATOM     14  C2  INB d   0     -43.804 -16.608  20.604  0.00  0.00     0.127 A 
ATOM     15  C4  INB d   0     -45.206 -16.511  20.454  0.00  0.00     0.027 A 
BRANCH  14  16
ATOM     16  N1  INB d   0     -43.216 -17.238  21.804  0.00  0.00    -0.114 N 
ATOM     17  O1  INB d   0     -42.048 -17.608  21.755  0.00  0.00    -0.532 OA
ATOM     18  O2  INB d   0     -43.924 -17.366  22.798  0.00  0.00    -0.532 OA
ENDBRANCH  14  16
ENDBRANCH   8   9
ENDBRANCH   1   7
BRANCH   2  19
ATOM     19  N3  INB d   0     -52.622 -14.994  16.035  0.00  0.00    -0.353 N 
ATOM     20  H3  INB d   0     -53.002 -14.141  16.418  0.00  0.00     0.166 HD
BRANCH  19  21
ATOM     21  C10 INB d   0     -53.303 -15.428  14.956  0.00  0.00     0.057 A 
ATOM     22  C15 INB d   0     -52.597 -15.691  13.763  0.00  0.00     0.017 A 
ATOM     23  C17 INB d   0     -53.277 -16.158  12.621  0.00  0.00     0.002 A 
ATOM     24  C19 INB d   0     -54.668 -16.370  12.667  0.00  0.00     0.000 A 
ATOM     25  C18 INB d   0     -55.378 -16.119  13.857  0.00  0.00     0.002 A 
ATOM     26  C16 INB d   0     -54.697 -15.653  14.998  0.00  0.00     0.017 A 
ENDBRANCH  19  21
ENDBRANCH   2  19
TORSDOF 5
