@<TRIPOS>MOLECULE
./may9.pdb
 26 28 0 0 0
SMALL
GASTEIGER

@<TRIPOS>ATOM
      1  C8       -49.2410  -16.3340   18.1170 C.ar    0  INB0        0.0658
      2  C9       -51.5490  -15.4380   16.7190 C.ar    0  INB0        0.0484
      3  C11      -49.1250  -15.7340   16.8460 C.ar    0  INB0        0.0174
      4  C12      -50.5290  -16.4550   18.6970 C.ar    0  INB0        0.0174
      5  C13      -50.2670  -15.2920   16.1510 C.ar    0  INB0        0.0159
      6  C14      -51.6710  -16.0130   18.0020 C.ar    0  INB0        0.0159
      7  N2       -48.0660  -16.7350   18.7630 N.pl3   0  INB0       -0.2327
      8  C3       -47.2860  -15.8740   19.2820 C.3     0  INB0        0.1417
      9  C1       -45.7960  -15.9120   19.3160 C.ar    0  INB0        0.0400
     10  C4       -45.2060  -16.5110   20.4540 C.ar    0  INB0        0.0247
     11  C2       -43.8040  -16.6080   20.6040 C.ar    0  INB0        0.1428
     12  C6       -42.9750  -16.0920   19.5870 C.ar    0  INB0        0.0273
     13  C7       -43.5400  -15.4930   18.4480 C.ar    0  INB0        0.0435
     14  C5       -44.9370  -15.3980   18.3020 C.ar    0  INB0        0.1935
     15  O3       -45.4000  -14.8030   17.1620 O.3     0  INB0       -0.2868
     16  N1       -43.2160  -17.2380   21.8040 N.pl3   0  INB0        0.0577
     17  O1       -42.0480  -17.6080   21.7550 O.2     0  INB0       -0.1261
     18  O2       -43.9240  -17.3660   22.7980 O.2     0  INB0       -0.1261
     19  N3       -52.6220  -14.9940   16.0350 N.pl3   0  INB0       -0.3125
     20  H3       -53.0020  -14.1410   16.4180 H       0  INB0        0.1522
     21  C10      -53.3030  -15.4280   14.9560 C.ar    0  INB0        0.0483
     22  C15      -52.5970  -15.6910   13.7630 C.ar    0  INB0        0.0146
     23  C17      -53.2770  -16.1580   12.6210 C.ar    0  INB0        0.0013
     24  C19      -54.6680  -16.3700   12.6670 C.ar    0  INB0        0.0001
     25  C18      -55.3780  -16.1190   13.8570 C.ar    0  INB0        0.0013
     26  C16      -54.6970  -15.6530   14.9980 C.ar    0  INB0        0.0146
@<TRIPOS>BOND
     1    23    24   ar
     2    23    22   ar
     3    24    25   ar
     4    22    21   ar
     5    25    26   ar
     6    21    26   ar
     7    21    19    1
     8    19    20    1
     9    19     2    1
    10     5     2   ar
    11     5     3   ar
    12     2     6   ar
    13     3     1   ar
    14    15    14    1
    15     6     4   ar
    16     1     4   ar
    17     1     7    1
    18    14    13   ar
    19    14     9   ar
    20    13    12   ar
    21     7     8    1
    22     8     9    1
    23     9    10   ar
    24    12    11   ar
    25    10    11   ar
    26    11    16    1
    27    17    16    2
    28    16    18    2
